<routes>
            <vType accel="1.0" decel="4.5" id="regular_vehicle" length="5.0" minGap="2.5" maxSpeed="25" sigma="0.5" color ="red" />
            <vType accel="1.0" decel="4.5" id="connected_vehicle" length="5.0" minGap="2.5" maxSpeed="25" sigma="0.5" color ="blue" />

            <route id="W_N" edges="W2TL TL2N"/>
            <route id="W_E" edges="W2TL TL2E"/>
            <route id="W_S" edges="W2TL TL2S"/>
            <route id="N_W" edges="N2TL TL2W"/>
            <route id="N_E" edges="N2TL TL2E"/>
            <route id="N_S" edges="N2TL TL2S"/>
            <route id="E_W" edges="E2TL TL2W"/>
            <route id="E_N" edges="E2TL TL2N"/>
            <route id="E_S" edges="E2TL TL2S"/>
            <route id="S_W" edges="S2TL TL2W"/>
            <route id="S_N" edges="S2TL TL2N"/>
            <route id="S_E" edges="S2TL TL2E"/>
    <vehicle id="0" type="connected_vehicle" route="E_W" depart="54.0" departLane="random" departSpeed="13.89" />
    <vehicle id="1" type="connected_vehicle" route="E_N" depart="79.0" departLane="random" departSpeed="13.89" />
    <vehicle id="2" type="connected_vehicle" route="N_S" depart="85.0" departLane="random" departSpeed="13.89" />
    <vehicle id="3" type="connected_vehicle" route="S_N" depart="90.0" departLane="random" departSpeed="13.89" />
    <vehicle id="4" type="connected_vehicle" route="N_S" depart="104.0" departLane="random" departSpeed="13.89" />
    <vehicle id="5" type="connected_vehicle" route="W_N" depart="108.0" departLane="random" departSpeed="13.89" />
    <vehicle id="6" type="connected_vehicle" route="S_N" depart="114.0" departLane="random" departSpeed="13.89" />
    <vehicle id="7" type="connected_vehicle" route="W_E" depart="117.0" departLane="random" departSpeed="13.89" />
    <vehicle id="8" type="connected_vehicle" route="W_S" depart="121.0" departLane="random" departSpeed="13.89" />
    <vehicle id="9" type="connected_vehicle" route="W_E" depart="123.0" departLane="random" departSpeed="13.89" />
    <vehicle id="10" type="connected_vehicle" route="W_E" depart="129.0" departLane="random" departSpeed="13.89" />
    <vehicle id="11" type="connected_vehicle" route="E_W" depart="135.0" departLane="random" departSpeed="13.89" />
    <vehicle id="12" type="connected_vehicle" route="S_N" depart="157.0" departLane="random" departSpeed="13.89" />
    <vehicle id="13" type="connected_vehicle" route="W_E" depart="158.0" departLane="random" departSpeed="13.89" />
    <vehicle id="14" type="connected_vehicle" route="W_E" depart="161.0" departLane="random" departSpeed="13.89" />
    <vehicle id="15" type="connected_vehicle" route="S_W" depart="161.0" departLane="random" departSpeed="13.89" />
    <vehicle id="16" type="regular_vehicle" route="S_N" depart="162.0" departLane="random" departSpeed="13.89" />
    <vehicle id="17" type="connected_vehicle" route="W_E" depart="163.0" departLane="random" departSpeed="13.89" />
    <vehicle id="18" type="connected_vehicle" route="N_E" depart="164.0" departLane="random" departSpeed="13.89" />
    <vehicle id="19" type="connected_vehicle" route="W_E" depart="166.0" departLane="random" departSpeed="13.89" />
    <vehicle id="20" type="connected_vehicle" route="N_S" depart="175.0" departLane="random" departSpeed="13.89" />
    <vehicle id="21" type="connected_vehicle" route="N_S" depart="179.0" departLane="random" departSpeed="13.89" />
    <vehicle id="22" type="regular_vehicle" route="E_S" depart="183.0" departLane="random" departSpeed="13.89" />
    <vehicle id="23" type="connected_vehicle" route="W_E" depart="185.0" departLane="random" departSpeed="13.89" />
    <vehicle id="24" type="connected_vehicle" route="S_W" depart="189.0" departLane="random" departSpeed="13.89" />
    <vehicle id="25" type="connected_vehicle" route="N_S" depart="194.0" departLane="random" departSpeed="13.89" />
    <vehicle id="26" type="connected_vehicle" route="S_N" depart="198.0" departLane="random" departSpeed="13.89" />
    <vehicle id="27" type="connected_vehicle" route="W_E" depart="206.0" departLane="random" departSpeed="13.89" />
    <vehicle id="28" type="regular_vehicle" route="N_E" depart="206.0" departLane="random" departSpeed="13.89" />
    <vehicle id="29" type="connected_vehicle" route="N_S" depart="213.0" departLane="random" departSpeed="13.89" />
    <vehicle id="30" type="connected_vehicle" route="E_W" depart="222.0" departLane="random" departSpeed="13.89" />
    <vehicle id="31" type="connected_vehicle" route="W_N" depart="232.0" departLane="random" departSpeed="13.89" />
    <vehicle id="32" type="connected_vehicle" route="E_W" depart="237.0" departLane="random" departSpeed="13.89" />
    <vehicle id="33" type="connected_vehicle" route="S_N" depart="238.0" departLane="random" departSpeed="13.89" />
    <vehicle id="34" type="connected_vehicle" route="E_W" depart="246.0" departLane="random" departSpeed="13.89" />
    <vehicle id="35" type="connected_vehicle" route="S_N" depart="248.0" departLane="random" departSpeed="13.89" />
    <vehicle id="36" type="connected_vehicle" route="W_N" depart="248.0" departLane="random" departSpeed="13.89" />
    <vehicle id="37" type="regular_vehicle" route="W_E" depart="252.0" departLane="random" departSpeed="13.89" />
    <vehicle id="38" type="regular_vehicle" route="W_E" depart="253.0" departLane="random" departSpeed="13.89" />
    <vehicle id="39" type="connected_vehicle" route="E_S" depart="263.0" departLane="random" departSpeed="13.89" />
    <vehicle id="40" type="connected_vehicle" route="N_W" depart="266.0" departLane="random" departSpeed="13.89" />
    <vehicle id="41" type="regular_vehicle" route="E_W" depart="266.0" departLane="random" departSpeed="13.89" />
    <vehicle id="42" type="connected_vehicle" route="S_N" depart="279.0" departLane="random" departSpeed="13.89" />
    <vehicle id="43" type="connected_vehicle" route="S_N" depart="280.0" departLane="random" departSpeed="13.89" />
    <vehicle id="44" type="connected_vehicle" route="S_N" depart="287.0" departLane="random" departSpeed="13.89" />
    <vehicle id="45" type="connected_vehicle" route="S_W" depart="287.0" departLane="random" departSpeed="13.89" />
    <vehicle id="46" type="connected_vehicle" route="N_S" depart="288.0" departLane="random" departSpeed="13.89" />
    <vehicle id="47" type="connected_vehicle" route="E_W" depart="290.0" departLane="random" departSpeed="13.89" />
    <vehicle id="48" type="connected_vehicle" route="W_E" depart="292.0" departLane="random" departSpeed="13.89" />
    <vehicle id="49" type="connected_vehicle" route="N_E" depart="298.0" departLane="random" departSpeed="13.89" />
    <vehicle id="50" type="connected_vehicle" route="N_S" depart="299.0" departLane="random" departSpeed="13.89" />
    <vehicle id="51" type="connected_vehicle" route="E_W" depart="299.0" departLane="random" departSpeed="13.89" />
    <vehicle id="52" type="regular_vehicle" route="W_E" depart="302.0" departLane="random" departSpeed="13.89" />
    <vehicle id="53" type="connected_vehicle" route="E_W" depart="303.0" departLane="random" departSpeed="13.89" />
    <vehicle id="54" type="connected_vehicle" route="N_S" depart="307.0" departLane="random" departSpeed="13.89" />
    <vehicle id="55" type="connected_vehicle" route="S_W" depart="310.0" departLane="random" departSpeed="13.89" />
    <vehicle id="56" type="connected_vehicle" route="N_S" depart="312.0" departLane="random" departSpeed="13.89" />
    <vehicle id="57" type="connected_vehicle" route="E_W" depart="316.0" departLane="random" departSpeed="13.89" />
    <vehicle id="58" type="connected_vehicle" route="N_S" depart="317.0" departLane="random" departSpeed="13.89" />
    <vehicle id="59" type="connected_vehicle" route="S_N" depart="319.0" departLane="random" departSpeed="13.89" />
    <vehicle id="60" type="connected_vehicle" route="E_W" depart="321.0" departLane="random" departSpeed="13.89" />
    <vehicle id="61" type="regular_vehicle" route="W_E" depart="329.0" departLane="random" departSpeed="13.89" />
    <vehicle id="62" type="connected_vehicle" route="E_N" depart="329.0" departLane="random" departSpeed="13.89" />
    <vehicle id="63" type="connected_vehicle" route="S_N" depart="336.0" departLane="random" departSpeed="13.89" />
    <vehicle id="64" type="regular_vehicle" route="E_W" depart="350.0" departLane="random" departSpeed="13.89" />
    <vehicle id="65" type="connected_vehicle" route="E_N" depart="351.0" departLane="random" departSpeed="13.89" />
    <vehicle id="66" type="connected_vehicle" route="N_E" depart="352.0" departLane="random" departSpeed="13.89" />
    <vehicle id="67" type="connected_vehicle" route="N_S" depart="356.0" departLane="random" departSpeed="13.89" />
    <vehicle id="68" type="regular_vehicle" route="N_S" depart="357.0" departLane="random" departSpeed="13.89" />
    <vehicle id="69" type="connected_vehicle" route="E_W" depart="359.0" departLane="random" departSpeed="13.89" />
    <vehicle id="70" type="connected_vehicle" route="W_E" depart="360.0" departLane="random" departSpeed="13.89" />
    <vehicle id="71" type="connected_vehicle" route="N_S" depart="362.0" departLane="random" departSpeed="13.89" />
    <vehicle id="72" type="regular_vehicle" route="E_W" depart="363.0" departLane="random" departSpeed="13.89" />
    <vehicle id="73" type="connected_vehicle" route="S_N" depart="365.0" departLane="random" departSpeed="13.89" />
    <vehicle id="74" type="connected_vehicle" route="E_W" depart="370.0" departLane="random" departSpeed="13.89" />
    <vehicle id="75" type="connected_vehicle" route="W_E" depart="372.0" departLane="random" departSpeed="13.89" />
    <vehicle id="76" type="connected_vehicle" route="N_S" depart="372.0" departLane="random" departSpeed="13.89" />
    <vehicle id="77" type="connected_vehicle" route="N_S" depart="372.0" departLane="random" departSpeed="13.89" />
    <vehicle id="78" type="connected_vehicle" route="W_E" depart="375.0" departLane="random" departSpeed="13.89" />
    <vehicle id="79" type="regular_vehicle" route="S_E" depart="378.0" departLane="random" departSpeed="13.89" />
    <vehicle id="80" type="connected_vehicle" route="S_N" depart="380.0" departLane="random" departSpeed="13.89" />
    <vehicle id="81" type="regular_vehicle" route="E_W" depart="380.0" departLane="random" departSpeed="13.89" />
    <vehicle id="82" type="connected_vehicle" route="E_W" depart="385.0" departLane="random" departSpeed="13.89" />
    <vehicle id="83" type="connected_vehicle" route="N_S" depart="387.0" departLane="random" departSpeed="13.89" />
    <vehicle id="84" type="connected_vehicle" route="S_N" depart="389.0" departLane="random" departSpeed="13.89" />
    <vehicle id="85" type="connected_vehicle" route="E_N" depart="394.0" departLane="random" departSpeed="13.89" />
    <vehicle id="86" type="connected_vehicle" route="N_S" depart="395.0" departLane="random" departSpeed="13.89" />
    <vehicle id="87" type="connected_vehicle" route="E_W" depart="395.0" departLane="random" departSpeed="13.89" />
    <vehicle id="88" type="connected_vehicle" route="N_S" depart="403.0" departLane="random" departSpeed="13.89" />
    <vehicle id="89" type="connected_vehicle" route="E_W" depart="404.0" departLane="random" departSpeed="13.89" />
    <vehicle id="90" type="connected_vehicle" route="N_W" depart="405.0" departLane="random" departSpeed="13.89" />
    <vehicle id="91" type="connected_vehicle" route="E_W" depart="410.0" departLane="random" departSpeed="13.89" />
    <vehicle id="92" type="connected_vehicle" route="W_E" depart="412.0" departLane="random" departSpeed="13.89" />
    <vehicle id="93" type="connected_vehicle" route="E_N" depart="413.0" departLane="random" departSpeed="13.89" />
    <vehicle id="94" type="connected_vehicle" route="S_N" depart="415.0" departLane="random" departSpeed="13.89" />
    <vehicle id="95" type="connected_vehicle" route="E_S" depart="417.0" departLane="random" departSpeed="13.89" />
    <vehicle id="96" type="connected_vehicle" route="N_W" depart="419.0" departLane="random" departSpeed="13.89" />
    <vehicle id="97" type="connected_vehicle" route="S_N" depart="419.0" departLane="random" departSpeed="13.89" />
    <vehicle id="98" type="connected_vehicle" route="E_N" depart="420.0" departLane="random" departSpeed="13.89" />
    <vehicle id="99" type="connected_vehicle" route="S_E" depart="421.0" departLane="random" departSpeed="13.89" />
    <vehicle id="100" type="connected_vehicle" route="E_S" depart="423.0" departLane="random" departSpeed="13.89" />
    <vehicle id="101" type="connected_vehicle" route="N_S" depart="425.0" departLane="random" departSpeed="13.89" />
    <vehicle id="102" type="regular_vehicle" route="E_S" depart="426.0" departLane="random" departSpeed="13.89" />
    <vehicle id="103" type="connected_vehicle" route="S_N" depart="426.0" departLane="random" departSpeed="13.89" />
    <vehicle id="104" type="connected_vehicle" route="S_N" depart="432.0" departLane="random" departSpeed="13.89" />
    <vehicle id="105" type="connected_vehicle" route="N_S" depart="434.0" departLane="random" departSpeed="13.89" />
    <vehicle id="106" type="regular_vehicle" route="W_E" depart="436.0" departLane="random" departSpeed="13.89" />
    <vehicle id="107" type="connected_vehicle" route="S_E" depart="437.0" departLane="random" departSpeed="13.89" />
    <vehicle id="108" type="connected_vehicle" route="W_N" depart="440.0" departLane="random" departSpeed="13.89" />
    <vehicle id="109" type="connected_vehicle" route="E_W" depart="440.0" departLane="random" departSpeed="13.89" />
    <vehicle id="110" type="connected_vehicle" route="W_E" depart="444.0" departLane="random" departSpeed="13.89" />
    <vehicle id="111" type="connected_vehicle" route="S_N" depart="446.0" departLane="random" departSpeed="13.89" />
    <vehicle id="112" type="connected_vehicle" route="W_N" depart="447.0" departLane="random" departSpeed="13.89" />
    <vehicle id="113" type="connected_vehicle" route="W_E" depart="448.0" departLane="random" departSpeed="13.89" />
    <vehicle id="114" type="connected_vehicle" route="N_S" depart="450.0" departLane="random" departSpeed="13.89" />
    <vehicle id="115" type="connected_vehicle" route="W_S" depart="451.0" departLane="random" departSpeed="13.89" />
    <vehicle id="116" type="connected_vehicle" route="N_S" depart="452.0" departLane="random" departSpeed="13.89" />
    <vehicle id="117" type="connected_vehicle" route="S_E" depart="452.0" departLane="random" departSpeed="13.89" />
    <vehicle id="118" type="connected_vehicle" route="E_W" depart="454.0" departLane="random" departSpeed="13.89" />
    <vehicle id="119" type="connected_vehicle" route="S_N" depart="458.0" departLane="random" departSpeed="13.89" />
    <vehicle id="120" type="connected_vehicle" route="S_N" depart="459.0" departLane="random" departSpeed="13.89" />
    <vehicle id="121" type="connected_vehicle" route="N_S" depart="463.0" departLane="random" departSpeed="13.89" />
    <vehicle id="122" type="connected_vehicle" route="N_S" depart="465.0" departLane="random" departSpeed="13.89" />
    <vehicle id="123" type="connected_vehicle" route="S_N" depart="467.0" departLane="random" departSpeed="13.89" />
    <vehicle id="124" type="connected_vehicle" route="N_S" depart="468.0" departLane="random" departSpeed="13.89" />
    <vehicle id="125" type="connected_vehicle" route="W_N" depart="469.0" departLane="random" departSpeed="13.89" />
    <vehicle id="126" type="connected_vehicle" route="S_N" depart="469.0" departLane="random" departSpeed="13.89" />
    <vehicle id="127" type="connected_vehicle" route="S_N" depart="473.0" departLane="random" departSpeed="13.89" />
    <vehicle id="128" type="connected_vehicle" route="S_N" depart="473.0" departLane="random" departSpeed="13.89" />
    <vehicle id="129" type="connected_vehicle" route="S_E" depart="473.0" departLane="random" departSpeed="13.89" />
    <vehicle id="130" type="connected_vehicle" route="S_N" depart="475.0" departLane="random" departSpeed="13.89" />
    <vehicle id="131" type="connected_vehicle" route="W_E" depart="476.0" departLane="random" departSpeed="13.89" />
    <vehicle id="132" type="connected_vehicle" route="W_E" depart="478.0" departLane="random" departSpeed="13.89" />
    <vehicle id="133" type="connected_vehicle" route="N_S" depart="480.0" departLane="random" departSpeed="13.89" />
    <vehicle id="134" type="connected_vehicle" route="W_S" depart="480.0" departLane="random" departSpeed="13.89" />
    <vehicle id="135" type="connected_vehicle" route="N_S" depart="484.0" departLane="random" departSpeed="13.89" />
    <vehicle id="136" type="connected_vehicle" route="W_E" depart="486.0" departLane="random" departSpeed="13.89" />
    <vehicle id="137" type="regular_vehicle" route="S_N" depart="490.0" departLane="random" departSpeed="13.89" />
    <vehicle id="138" type="connected_vehicle" route="N_S" depart="493.0" departLane="random" departSpeed="13.89" />
    <vehicle id="139" type="connected_vehicle" route="W_E" depart="497.0" departLane="random" departSpeed="13.89" />
    <vehicle id="140" type="connected_vehicle" route="S_N" depart="497.0" departLane="random" departSpeed="13.89" />
    <vehicle id="141" type="connected_vehicle" route="N_E" depart="498.0" departLane="random" departSpeed="13.89" />
    <vehicle id="142" type="connected_vehicle" route="W_E" depart="500.0" departLane="random" departSpeed="13.89" />
    <vehicle id="143" type="connected_vehicle" route="E_W" depart="501.0" departLane="random" departSpeed="13.89" />
    <vehicle id="144" type="connected_vehicle" route="N_S" depart="501.0" departLane="random" departSpeed="13.89" />
    <vehicle id="145" type="connected_vehicle" route="E_W" depart="501.0" departLane="random" departSpeed="13.89" />
    <vehicle id="146" type="connected_vehicle" route="E_W" depart="502.0" departLane="random" departSpeed="13.89" />
    <vehicle id="147" type="connected_vehicle" route="E_S" depart="504.0" departLane="random" departSpeed="13.89" />
    <vehicle id="148" type="connected_vehicle" route="W_E" depart="505.0" departLane="random" departSpeed="13.89" />
    <vehicle id="149" type="connected_vehicle" route="S_N" depart="505.0" departLane="random" departSpeed="13.89" />
    <vehicle id="150" type="connected_vehicle" route="W_E" depart="507.0" departLane="random" departSpeed="13.89" />
    <vehicle id="151" type="connected_vehicle" route="S_E" depart="507.0" departLane="random" departSpeed="13.89" />
    <vehicle id="152" type="connected_vehicle" route="W_E" depart="508.0" departLane="random" departSpeed="13.89" />
    <vehicle id="153" type="connected_vehicle" route="W_N" depart="508.0" departLane="random" departSpeed="13.89" />
    <vehicle id="154" type="connected_vehicle" route="W_E" depart="515.0" departLane="random" departSpeed="13.89" />
    <vehicle id="155" type="connected_vehicle" route="S_N" depart="517.0" departLane="random" departSpeed="13.89" />
    <vehicle id="156" type="connected_vehicle" route="N_W" depart="519.0" departLane="random" departSpeed="13.89" />
    <vehicle id="157" type="connected_vehicle" route="S_N" depart="519.0" departLane="random" departSpeed="13.89" />
    <vehicle id="158" type="connected_vehicle" route="E_W" depart="521.0" departLane="random" departSpeed="13.89" />
    <vehicle id="159" type="connected_vehicle" route="N_S" depart="523.0" departLane="random" departSpeed="13.89" />
    <vehicle id="160" type="connected_vehicle" route="S_N" depart="527.0" departLane="random" departSpeed="13.89" />
    <vehicle id="161" type="connected_vehicle" route="W_E" depart="528.0" departLane="random" departSpeed="13.89" />
    <vehicle id="162" type="regular_vehicle" route="S_N" depart="530.0" departLane="random" departSpeed="13.89" />
    <vehicle id="163" type="connected_vehicle" route="E_W" depart="531.0" departLane="random" departSpeed="13.89" />
    <vehicle id="164" type="connected_vehicle" route="S_N" depart="534.0" departLane="random" departSpeed="13.89" />
    <vehicle id="165" type="regular_vehicle" route="W_E" depart="538.0" departLane="random" departSpeed="13.89" />
    <vehicle id="166" type="regular_vehicle" route="S_E" depart="538.0" departLane="random" departSpeed="13.89" />
    <vehicle id="167" type="connected_vehicle" route="W_S" depart="538.0" departLane="random" departSpeed="13.89" />
    <vehicle id="168" type="connected_vehicle" route="E_N" depart="539.0" departLane="random" departSpeed="13.89" />
    <vehicle id="169" type="connected_vehicle" route="S_N" depart="541.0" departLane="random" departSpeed="13.89" />
    <vehicle id="170" type="connected_vehicle" route="S_N" depart="544.0" departLane="random" departSpeed="13.89" />
    <vehicle id="171" type="connected_vehicle" route="E_W" depart="544.0" departLane="random" departSpeed="13.89" />
    <vehicle id="172" type="connected_vehicle" route="E_W" depart="545.0" departLane="random" departSpeed="13.89" />
    <vehicle id="173" type="regular_vehicle" route="W_E" depart="545.0" departLane="random" departSpeed="13.89" />
    <vehicle id="174" type="regular_vehicle" route="N_S" depart="546.0" departLane="random" departSpeed="13.89" />
    <vehicle id="175" type="connected_vehicle" route="E_W" depart="548.0" departLane="random" departSpeed="13.89" />
    <vehicle id="176" type="connected_vehicle" route="S_N" depart="550.0" departLane="random" departSpeed="13.89" />
    <vehicle id="177" type="connected_vehicle" route="S_E" depart="550.0" departLane="random" departSpeed="13.89" />
    <vehicle id="178" type="regular_vehicle" route="S_N" depart="553.0" departLane="random" departSpeed="13.89" />
    <vehicle id="179" type="connected_vehicle" route="W_S" depart="554.0" departLane="random" departSpeed="13.89" />
    <vehicle id="180" type="connected_vehicle" route="N_W" depart="555.0" departLane="random" departSpeed="13.89" />
    <vehicle id="181" type="connected_vehicle" route="E_W" depart="556.0" departLane="random" departSpeed="13.89" />
    <vehicle id="182" type="connected_vehicle" route="W_E" depart="558.0" departLane="random" departSpeed="13.89" />
    <vehicle id="183" type="connected_vehicle" route="S_N" depart="558.0" departLane="random" departSpeed="13.89" />
    <vehicle id="184" type="regular_vehicle" route="N_W" depart="560.0" departLane="random" departSpeed="13.89" />
    <vehicle id="185" type="connected_vehicle" route="W_E" depart="562.0" departLane="random" departSpeed="13.89" />
    <vehicle id="186" type="connected_vehicle" route="S_N" depart="563.0" departLane="random" departSpeed="13.89" />
    <vehicle id="187" type="regular_vehicle" route="S_E" depart="567.0" departLane="random" departSpeed="13.89" />
    <vehicle id="188" type="regular_vehicle" route="N_S" depart="570.0" departLane="random" departSpeed="13.89" />
    <vehicle id="189" type="connected_vehicle" route="S_N" depart="570.0" departLane="random" departSpeed="13.89" />
    <vehicle id="190" type="regular_vehicle" route="N_S" depart="570.0" departLane="random" departSpeed="13.89" />
    <vehicle id="191" type="connected_vehicle" route="W_E" depart="571.0" departLane="random" departSpeed="13.89" />
    <vehicle id="192" type="connected_vehicle" route="S_N" depart="571.0" departLane="random" departSpeed="13.89" />
    <vehicle id="193" type="connected_vehicle" route="E_W" depart="572.0" departLane="random" departSpeed="13.89" />
    <vehicle id="194" type="connected_vehicle" route="W_E" depart="573.0" departLane="random" departSpeed="13.89" />
    <vehicle id="195" type="connected_vehicle" route="N_S" depart="574.0" departLane="random" departSpeed="13.89" />
    <vehicle id="196" type="connected_vehicle" route="W_E" depart="576.0" departLane="random" departSpeed="13.89" />
    <vehicle id="197" type="connected_vehicle" route="W_E" depart="578.0" departLane="random" departSpeed="13.89" />
    <vehicle id="198" type="connected_vehicle" route="S_N" depart="578.0" departLane="random" departSpeed="13.89" />
    <vehicle id="199" type="connected_vehicle" route="N_S" depart="580.0" departLane="random" departSpeed="13.89" />
    <vehicle id="200" type="connected_vehicle" route="S_N" depart="580.0" departLane="random" departSpeed="13.89" />
    <vehicle id="201" type="connected_vehicle" route="N_S" depart="585.0" departLane="random" departSpeed="13.89" />
    <vehicle id="202" type="connected_vehicle" route="E_S" depart="588.0" departLane="random" departSpeed="13.89" />
    <vehicle id="203" type="connected_vehicle" route="E_W" depart="589.0" departLane="random" departSpeed="13.89" />
    <vehicle id="204" type="regular_vehicle" route="S_W" depart="590.0" departLane="random" departSpeed="13.89" />
    <vehicle id="205" type="connected_vehicle" route="N_S" depart="591.0" departLane="random" departSpeed="13.89" />
    <vehicle id="206" type="connected_vehicle" route="S_E" depart="592.0" departLane="random" departSpeed="13.89" />
    <vehicle id="207" type="connected_vehicle" route="N_S" depart="592.0" departLane="random" departSpeed="13.89" />
    <vehicle id="208" type="regular_vehicle" route="S_N" depart="593.0" departLane="random" departSpeed="13.89" />
    <vehicle id="209" type="connected_vehicle" route="W_S" depart="596.0" departLane="random" departSpeed="13.89" />
    <vehicle id="210" type="connected_vehicle" route="W_S" depart="597.0" departLane="random" departSpeed="13.89" />
    <vehicle id="211" type="connected_vehicle" route="N_S" depart="597.0" departLane="random" departSpeed="13.89" />
    <vehicle id="212" type="regular_vehicle" route="S_N" depart="598.0" departLane="random" departSpeed="13.89" />
    <vehicle id="213" type="connected_vehicle" route="W_S" depart="598.0" departLane="random" departSpeed="13.89" />
    <vehicle id="214" type="connected_vehicle" route="E_S" depart="601.0" departLane="random" departSpeed="13.89" />
    <vehicle id="215" type="connected_vehicle" route="W_E" depart="601.0" departLane="random" departSpeed="13.89" />
    <vehicle id="216" type="connected_vehicle" route="N_S" depart="602.0" departLane="random" departSpeed="13.89" />
    <vehicle id="217" type="connected_vehicle" route="S_E" depart="602.0" departLane="random" departSpeed="13.89" />
    <vehicle id="218" type="connected_vehicle" route="W_E" depart="605.0" departLane="random" departSpeed="13.89" />
    <vehicle id="219" type="connected_vehicle" route="N_W" depart="605.0" departLane="random" departSpeed="13.89" />
    <vehicle id="220" type="connected_vehicle" route="S_E" depart="605.0" departLane="random" departSpeed="13.89" />
    <vehicle id="221" type="connected_vehicle" route="N_S" depart="606.0" departLane="random" departSpeed="13.89" />
    <vehicle id="222" type="connected_vehicle" route="E_N" depart="607.0" departLane="random" departSpeed="13.89" />
    <vehicle id="223" type="connected_vehicle" route="N_W" depart="608.0" departLane="random" departSpeed="13.89" />
    <vehicle id="224" type="regular_vehicle" route="N_S" depart="610.0" departLane="random" departSpeed="13.89" />
    <vehicle id="225" type="connected_vehicle" route="W_E" depart="611.0" departLane="random" departSpeed="13.89" />
    <vehicle id="226" type="connected_vehicle" route="W_E" depart="613.0" departLane="random" departSpeed="13.89" />
    <vehicle id="227" type="connected_vehicle" route="N_S" depart="613.0" departLane="random" departSpeed="13.89" />
    <vehicle id="228" type="connected_vehicle" route="N_S" depart="615.0" departLane="random" departSpeed="13.89" />
    <vehicle id="229" type="connected_vehicle" route="E_W" depart="616.0" departLane="random" departSpeed="13.89" />
    <vehicle id="230" type="connected_vehicle" route="E_W" depart="617.0" departLane="random" departSpeed="13.89" />
    <vehicle id="231" type="connected_vehicle" route="S_N" depart="617.0" departLane="random" departSpeed="13.89" />
    <vehicle id="232" type="regular_vehicle" route="W_E" depart="620.0" departLane="random" departSpeed="13.89" />
    <vehicle id="233" type="connected_vehicle" route="S_N" depart="620.0" departLane="random" departSpeed="13.89" />
    <vehicle id="234" type="regular_vehicle" route="S_N" depart="622.0" departLane="random" departSpeed="13.89" />
    <vehicle id="235" type="connected_vehicle" route="W_E" depart="623.0" departLane="random" departSpeed="13.89" />
    <vehicle id="236" type="connected_vehicle" route="E_S" depart="623.0" departLane="random" departSpeed="13.89" />
    <vehicle id="237" type="connected_vehicle" route="N_S" depart="624.0" departLane="random" departSpeed="13.89" />
    <vehicle id="238" type="connected_vehicle" route="S_E" depart="624.0" departLane="random" departSpeed="13.89" />
    <vehicle id="239" type="connected_vehicle" route="E_W" depart="625.0" departLane="random" departSpeed="13.89" />
    <vehicle id="240" type="connected_vehicle" route="S_E" depart="628.0" departLane="random" departSpeed="13.89" />
    <vehicle id="241" type="connected_vehicle" route="E_W" depart="632.0" departLane="random" departSpeed="13.89" />
    <vehicle id="242" type="connected_vehicle" route="S_N" depart="632.0" departLane="random" departSpeed="13.89" />
    <vehicle id="243" type="connected_vehicle" route="S_N" depart="634.0" departLane="random" departSpeed="13.89" />
    <vehicle id="244" type="connected_vehicle" route="S_W" depart="635.0" departLane="random" departSpeed="13.89" />
    <vehicle id="245" type="connected_vehicle" route="W_E" depart="638.0" departLane="random" departSpeed="13.89" />
    <vehicle id="246" type="connected_vehicle" route="N_S" depart="641.0" departLane="random" departSpeed="13.89" />
    <vehicle id="247" type="connected_vehicle" route="W_S" depart="643.0" departLane="random" departSpeed="13.89" />
    <vehicle id="248" type="connected_vehicle" route="E_W" depart="644.0" departLane="random" departSpeed="13.89" />
    <vehicle id="249" type="connected_vehicle" route="E_W" depart="645.0" departLane="random" departSpeed="13.89" />