<routes>
            <vType accel="1.0" decel="4.5" id="regular_vehicle" length="5.0" minGap="2.5" maxSpeed="25" sigma="0.5" color ="red" />
            <vType accel="1.0" decel="4.5" id="connected_vehicle" length="5.0" minGap="2.5" maxSpeed="25" sigma="0.5" color ="blue" />

            <route id="W_N" edges="W2TL TL2N"/>
            <route id="W_E" edges="W2TL TL2E"/>
            <route id="W_S" edges="W2TL TL2S"/>
            <route id="N_W" edges="N2TL TL2W"/>
            <route id="N_E" edges="N2TL TL2E"/>
            <route id="N_S" edges="N2TL TL2S"/>
            <route id="E_W" edges="E2TL TL2W"/>
            <route id="E_N" edges="E2TL TL2N"/>
            <route id="E_S" edges="E2TL TL2S"/>
            <route id="S_W" edges="S2TL TL2W"/>
            <route id="S_N" edges="S2TL TL2N"/>
            <route id="S_E" edges="S2TL TL2E"/>
    <vehicle id="0" type="connected_vehicle" route="W_N" depart="49.0" departLane="random" departSpeed="13.89" />
    <vehicle id="1" type="connected_vehicle" route="S_N" depart="55.0" departLane="random" departSpeed="13.89" />
    <vehicle id="2" type="regular_vehicle" route="E_W" depart="62.0" departLane="random" departSpeed="13.89" />
    <vehicle id="3" type="connected_vehicle" route="N_E" depart="63.0" departLane="random" departSpeed="13.89" />
    <vehicle id="4" type="connected_vehicle" route="N_W" depart="74.0" departLane="random" departSpeed="13.89" />
    <vehicle id="5" type="regular_vehicle" route="W_S" depart="86.0" departLane="random" departSpeed="13.89" />
    <vehicle id="6" type="connected_vehicle" route="S_E" depart="102.0" departLane="random" departSpeed="13.89" />
    <vehicle id="7" type="connected_vehicle" route="S_E" depart="116.0" departLane="random" departSpeed="13.89" />
    <vehicle id="8" type="regular_vehicle" route="N_S" depart="120.0" departLane="random" departSpeed="13.89" />
    <vehicle id="9" type="connected_vehicle" route="W_E" depart="122.0" departLane="random" departSpeed="13.89" />
    <vehicle id="10" type="regular_vehicle" route="S_N" depart="125.0" departLane="random" departSpeed="13.89" />
    <vehicle id="11" type="connected_vehicle" route="S_N" depart="134.0" departLane="random" departSpeed="13.89" />
    <vehicle id="12" type="connected_vehicle" route="E_W" depart="138.0" departLane="random" departSpeed="13.89" />
    <vehicle id="13" type="connected_vehicle" route="S_N" depart="143.0" departLane="random" departSpeed="13.89" />
    <vehicle id="14" type="connected_vehicle" route="E_N" depart="146.0" departLane="random" departSpeed="13.89" />
    <vehicle id="15" type="connected_vehicle" route="S_N" depart="153.0" departLane="random" departSpeed="13.89" />
    <vehicle id="16" type="connected_vehicle" route="N_W" depart="158.0" departLane="random" departSpeed="13.89" />
    <vehicle id="17" type="connected_vehicle" route="S_N" depart="161.0" departLane="random" departSpeed="13.89" />
    <vehicle id="18" type="connected_vehicle" route="E_W" depart="162.0" departLane="random" departSpeed="13.89" />
    <vehicle id="19" type="connected_vehicle" route="S_N" depart="163.0" departLane="random" departSpeed="13.89" />
    <vehicle id="20" type="connected_vehicle" route="S_N" depart="164.0" departLane="random" departSpeed="13.89" />
    <vehicle id="21" type="connected_vehicle" route="N_S" depart="168.0" departLane="random" departSpeed="13.89" />
    <vehicle id="22" type="connected_vehicle" route="E_W" depart="169.0" departLane="random" departSpeed="13.89" />
    <vehicle id="23" type="connected_vehicle" route="N_E" depart="170.0" departLane="random" departSpeed="13.89" />
    <vehicle id="24" type="connected_vehicle" route="E_N" depart="176.0" departLane="random" departSpeed="13.89" />
    <vehicle id="25" type="connected_vehicle" route="E_S" depart="178.0" departLane="random" departSpeed="13.89" />
    <vehicle id="26" type="connected_vehicle" route="W_E" depart="184.0" departLane="random" departSpeed="13.89" />
    <vehicle id="27" type="connected_vehicle" route="W_E" depart="186.0" departLane="random" departSpeed="13.89" />
    <vehicle id="28" type="connected_vehicle" route="E_W" depart="193.0" departLane="random" departSpeed="13.89" />
    <vehicle id="29" type="connected_vehicle" route="E_W" depart="206.0" departLane="random" departSpeed="13.89" />
    <vehicle id="30" type="connected_vehicle" route="E_W" depart="206.0" departLane="random" departSpeed="13.89" />
    <vehicle id="31" type="connected_vehicle" route="W_S" depart="213.0" departLane="random" departSpeed="13.89" />
    <vehicle id="32" type="connected_vehicle" route="N_E" depart="234.0" departLane="random" departSpeed="13.89" />
    <vehicle id="33" type="connected_vehicle" route="W_E" depart="235.0" departLane="random" departSpeed="13.89" />
    <vehicle id="34" type="connected_vehicle" route="S_N" depart="235.0" departLane="random" departSpeed="13.89" />
    <vehicle id="35" type="connected_vehicle" route="N_S" depart="237.0" departLane="random" departSpeed="13.89" />
    <vehicle id="36" type="regular_vehicle" route="S_E" depart="239.0" departLane="random" departSpeed="13.89" />
    <vehicle id="37" type="connected_vehicle" route="S_W" depart="241.0" departLane="random" departSpeed="13.89" />
    <vehicle id="38" type="connected_vehicle" route="S_N" depart="244.0" departLane="random" departSpeed="13.89" />
    <vehicle id="39" type="connected_vehicle" route="N_S" depart="245.0" departLane="random" departSpeed="13.89" />
    <vehicle id="40" type="connected_vehicle" route="N_S" depart="249.0" departLane="random" departSpeed="13.89" />
    <vehicle id="41" type="connected_vehicle" route="E_W" depart="251.0" departLane="random" departSpeed="13.89" />
    <vehicle id="42" type="connected_vehicle" route="S_N" depart="251.0" departLane="random" departSpeed="13.89" />
    <vehicle id="43" type="connected_vehicle" route="E_N" depart="252.0" departLane="random" departSpeed="13.89" />
    <vehicle id="44" type="connected_vehicle" route="S_N" depart="255.0" departLane="random" departSpeed="13.89" />
    <vehicle id="45" type="regular_vehicle" route="W_E" depart="258.0" departLane="random" departSpeed="13.89" />
    <vehicle id="46" type="connected_vehicle" route="E_W" depart="261.0" departLane="random" departSpeed="13.89" />
    <vehicle id="47" type="connected_vehicle" route="S_N" depart="271.0" departLane="random" departSpeed="13.89" />
    <vehicle id="48" type="connected_vehicle" route="N_S" depart="273.0" departLane="random" departSpeed="13.89" />
    <vehicle id="49" type="connected_vehicle" route="S_N" depart="277.0" departLane="random" departSpeed="13.89" />
    <vehicle id="50" type="connected_vehicle" route="N_S" depart="282.0" departLane="random" departSpeed="13.89" />
    <vehicle id="51" type="connected_vehicle" route="N_W" depart="288.0" departLane="random" departSpeed="13.89" />
    <vehicle id="52" type="connected_vehicle" route="N_S" depart="292.0" departLane="random" departSpeed="13.89" />
    <vehicle id="53" type="connected_vehicle" route="E_W" depart="295.0" departLane="random" departSpeed="13.89" />
    <vehicle id="54" type="connected_vehicle" route="N_S" depart="295.0" departLane="random" departSpeed="13.89" />
    <vehicle id="55" type="connected_vehicle" route="W_E" depart="298.0" departLane="random" departSpeed="13.89" />
    <vehicle id="56" type="connected_vehicle" route="E_W" depart="299.0" departLane="random" departSpeed="13.89" />
    <vehicle id="57" type="connected_vehicle" route="W_E" depart="302.0" departLane="random" departSpeed="13.89" />
    <vehicle id="58" type="connected_vehicle" route="S_N" depart="302.0" departLane="random" departSpeed="13.89" />
    <vehicle id="59" type="connected_vehicle" route="S_W" depart="303.0" departLane="random" departSpeed="13.89" />
    <vehicle id="60" type="connected_vehicle" route="E_W" depart="304.0" departLane="random" departSpeed="13.89" />
    <vehicle id="61" type="connected_vehicle" route="E_W" depart="307.0" departLane="random" departSpeed="13.89" />
    <vehicle id="62" type="connected_vehicle" route="N_S" depart="307.0" departLane="random" departSpeed="13.89" />
    <vehicle id="63" type="connected_vehicle" route="E_S" depart="310.0" departLane="random" departSpeed="13.89" />
    <vehicle id="64" type="connected_vehicle" route="S_N" depart="311.0" departLane="random" departSpeed="13.89" />
    <vehicle id="65" type="connected_vehicle" route="N_S" depart="320.0" departLane="random" departSpeed="13.89" />
    <vehicle id="66" type="connected_vehicle" route="W_E" depart="320.0" departLane="random" departSpeed="13.89" />
    <vehicle id="67" type="regular_vehicle" route="E_W" depart="322.0" departLane="random" departSpeed="13.89" />
    <vehicle id="68" type="connected_vehicle" route="S_N" depart="322.0" departLane="random" departSpeed="13.89" />
    <vehicle id="69" type="connected_vehicle" route="E_W" depart="324.0" departLane="random" departSpeed="13.89" />
    <vehicle id="70" type="connected_vehicle" route="E_W" depart="325.0" departLane="random" departSpeed="13.89" />
    <vehicle id="71" type="connected_vehicle" route="S_E" depart="329.0" departLane="random" departSpeed="13.89" />
    <vehicle id="72" type="connected_vehicle" route="W_E" depart="332.0" departLane="random" departSpeed="13.89" />
    <vehicle id="73" type="connected_vehicle" route="N_S" depart="333.0" departLane="random" departSpeed="13.89" />
    <vehicle id="74" type="connected_vehicle" route="S_N" depart="338.0" departLane="random" departSpeed="13.89" />
    <vehicle id="75" type="regular_vehicle" route="W_E" depart="341.0" departLane="random" departSpeed="13.89" />
    <vehicle id="76" type="connected_vehicle" route="S_N" depart="341.0" departLane="random" departSpeed="13.89" />
    <vehicle id="77" type="connected_vehicle" route="S_N" depart="341.0" departLane="random" departSpeed="13.89" />
    <vehicle id="78" type="regular_vehicle" route="E_W" depart="345.0" departLane="random" departSpeed="13.89" />
    <vehicle id="79" type="connected_vehicle" route="W_E" depart="345.0" departLane="random" departSpeed="13.89" />
    <vehicle id="80" type="connected_vehicle" route="W_E" depart="345.0" departLane="random" departSpeed="13.89" />
    <vehicle id="81" type="connected_vehicle" route="S_N" depart="346.0" departLane="random" departSpeed="13.89" />
    <vehicle id="82" type="connected_vehicle" route="E_W" depart="352.0" departLane="random" departSpeed="13.89" />
    <vehicle id="83" type="connected_vehicle" route="E_S" depart="356.0" departLane="random" departSpeed="13.89" />
    <vehicle id="84" type="connected_vehicle" route="W_S" depart="358.0" departLane="random" departSpeed="13.89" />
    <vehicle id="85" type="connected_vehicle" route="E_W" depart="359.0" departLane="random" departSpeed="13.89" />
    <vehicle id="86" type="connected_vehicle" route="N_S" depart="362.0" departLane="random" departSpeed="13.89" />
    <vehicle id="87" type="connected_vehicle" route="W_N" depart="367.0" departLane="random" departSpeed="13.89" />
    <vehicle id="88" type="regular_vehicle" route="W_E" depart="368.0" departLane="random" departSpeed="13.89" />
    <vehicle id="89" type="connected_vehicle" route="E_W" depart="368.0" departLane="random" departSpeed="13.89" />
    <vehicle id="90" type="connected_vehicle" route="N_E" depart="373.0" departLane="random" departSpeed="13.89" />
    <vehicle id="91" type="connected_vehicle" route="S_N" depart="375.0" departLane="random" departSpeed="13.89" />
    <vehicle id="92" type="connected_vehicle" route="E_W" depart="381.0" departLane="random" departSpeed="13.89" />
    <vehicle id="93" type="connected_vehicle" route="E_W" depart="384.0" departLane="random" departSpeed="13.89" />
    <vehicle id="94" type="connected_vehicle" route="N_S" depart="391.0" departLane="random" departSpeed="13.89" />
    <vehicle id="95" type="connected_vehicle" route="E_S" depart="393.0" departLane="random" departSpeed="13.89" />
    <vehicle id="96" type="connected_vehicle" route="E_W" depart="393.0" departLane="random" departSpeed="13.89" />
    <vehicle id="97" type="regular_vehicle" route="E_N" depart="393.0" departLane="random" departSpeed="13.89" />
    <vehicle id="98" type="connected_vehicle" route="S_N" depart="396.0" departLane="random" departSpeed="13.89" />
    <vehicle id="99" type="connected_vehicle" route="S_N" depart="400.0" departLane="random" departSpeed="13.89" />
    <vehicle id="100" type="connected_vehicle" route="N_S" depart="400.0" departLane="random" departSpeed="13.89" />
    <vehicle id="101" type="connected_vehicle" route="S_N" depart="402.0" departLane="random" departSpeed="13.89" />
    <vehicle id="102" type="connected_vehicle" route="S_E" depart="403.0" departLane="random" departSpeed="13.89" />
    <vehicle id="103" type="connected_vehicle" route="S_W" depart="408.0" departLane="random" departSpeed="13.89" />
    <vehicle id="104" type="connected_vehicle" route="E_W" depart="417.0" departLane="random" departSpeed="13.89" />
    <vehicle id="105" type="connected_vehicle" route="S_N" depart="418.0" departLane="random" departSpeed="13.89" />
    <vehicle id="106" type="connected_vehicle" route="E_W" depart="418.0" departLane="random" departSpeed="13.89" />
    <vehicle id="107" type="connected_vehicle" route="E_S" depart="419.0" departLane="random" departSpeed="13.89" />
    <vehicle id="108" type="connected_vehicle" route="N_S" depart="421.0" departLane="random" departSpeed="13.89" />
    <vehicle id="109" type="connected_vehicle" route="W_E" depart="426.0" departLane="random" departSpeed="13.89" />
    <vehicle id="110" type="connected_vehicle" route="S_N" depart="427.0" departLane="random" departSpeed="13.89" />
    <vehicle id="111" type="connected_vehicle" route="S_W" depart="428.0" departLane="random" departSpeed="13.89" />
    <vehicle id="112" type="connected_vehicle" route="S_N" depart="429.0" departLane="random" departSpeed="13.89" />
    <vehicle id="113" type="connected_vehicle" route="N_S" depart="435.0" departLane="random" departSpeed="13.89" />
    <vehicle id="114" type="connected_vehicle" route="S_N" depart="437.0" departLane="random" departSpeed="13.89" />
    <vehicle id="115" type="connected_vehicle" route="E_S" depart="438.0" departLane="random" departSpeed="13.89" />
    <vehicle id="116" type="connected_vehicle" route="W_E" depart="439.0" departLane="random" departSpeed="13.89" />
    <vehicle id="117" type="connected_vehicle" route="W_E" depart="444.0" departLane="random" departSpeed="13.89" />
    <vehicle id="118" type="connected_vehicle" route="S_N" depart="445.0" departLane="random" departSpeed="13.89" />
    <vehicle id="119" type="regular_vehicle" route="N_S" depart="447.0" departLane="random" departSpeed="13.89" />
    <vehicle id="120" type="regular_vehicle" route="N_E" depart="449.0" departLane="random" departSpeed="13.89" />
    <vehicle id="121" type="connected_vehicle" route="N_W" depart="451.0" departLane="random" departSpeed="13.89" />
    <vehicle id="122" type="connected_vehicle" route="N_S" depart="452.0" departLane="random" departSpeed="13.89" />
    <vehicle id="123" type="connected_vehicle" route="S_N" depart="456.0" departLane="random" departSpeed="13.89" />
    <vehicle id="124" type="connected_vehicle" route="S_N" depart="458.0" departLane="random" departSpeed="13.89" />
    <vehicle id="125" type="connected_vehicle" route="N_S" depart="464.0" departLane="random" departSpeed="13.89" />
    <vehicle id="126" type="connected_vehicle" route="E_S" depart="464.0" departLane="random" departSpeed="13.89" />
    <vehicle id="127" type="connected_vehicle" route="S_N" depart="465.0" departLane="random" departSpeed="13.89" />
    <vehicle id="128" type="connected_vehicle" route="N_S" depart="467.0" departLane="random" departSpeed="13.89" />
    <vehicle id="129" type="connected_vehicle" route="N_S" depart="470.0" departLane="random" departSpeed="13.89" />
    <vehicle id="130" type="connected_vehicle" route="S_N" depart="471.0" departLane="random" departSpeed="13.89" />
    <vehicle id="131" type="connected_vehicle" route="W_E" depart="471.0" departLane="random" departSpeed="13.89" />
    <vehicle id="132" type="connected_vehicle" route="N_S" depart="472.0" departLane="random" departSpeed="13.89" />
    <vehicle id="133" type="connected_vehicle" route="E_N" depart="474.0" departLane="random" departSpeed="13.89" />
    <vehicle id="134" type="connected_vehicle" route="W_E" depart="475.0" departLane="random" departSpeed="13.89" />
    <vehicle id="135" type="connected_vehicle" route="S_N" depart="476.0" departLane="random" departSpeed="13.89" />
    <vehicle id="136" type="connected_vehicle" route="W_E" depart="477.0" departLane="random" departSpeed="13.89" />
    <vehicle id="137" type="connected_vehicle" route="S_N" depart="477.0" departLane="random" departSpeed="13.89" />
    <vehicle id="138" type="connected_vehicle" route="S_N" depart="479.0" departLane="random" departSpeed="13.89" />
    <vehicle id="139" type="connected_vehicle" route="W_E" depart="480.0" departLane="random" departSpeed="13.89" />
    <vehicle id="140" type="connected_vehicle" route="W_E" depart="482.0" departLane="random" departSpeed="13.89" />
    <vehicle id="141" type="connected_vehicle" route="N_S" depart="484.0" departLane="random" departSpeed="13.89" />
    <vehicle id="142" type="connected_vehicle" route="N_S" depart="486.0" departLane="random" departSpeed="13.89" />
    <vehicle id="143" type="connected_vehicle" route="W_E" depart="486.0" departLane="random" departSpeed="13.89" />
    <vehicle id="144" type="connected_vehicle" route="S_N" depart="487.0" departLane="random" departSpeed="13.89" />
    <vehicle id="145" type="connected_vehicle" route="N_S" depart="488.0" departLane="random" departSpeed="13.89" />
    <vehicle id="146" type="connected_vehicle" route="W_S" depart="488.0" departLane="random" departSpeed="13.89" />
    <vehicle id="147" type="connected_vehicle" route="S_E" depart="489.0" departLane="random" departSpeed="13.89" />
    <vehicle id="148" type="connected_vehicle" route="S_N" depart="491.0" departLane="random" departSpeed="13.89" />
    <vehicle id="149" type="connected_vehicle" route="N_S" depart="492.0" departLane="random" departSpeed="13.89" />
    <vehicle id="150" type="connected_vehicle" route="E_W" depart="498.0" departLane="random" departSpeed="13.89" />
    <vehicle id="151" type="connected_vehicle" route="W_E" depart="499.0" departLane="random" departSpeed="13.89" />
    <vehicle id="152" type="connected_vehicle" route="E_N" depart="501.0" departLane="random" departSpeed="13.89" />
    <vehicle id="153" type="connected_vehicle" route="W_E" depart="502.0" departLane="random" departSpeed="13.89" />
    <vehicle id="154" type="connected_vehicle" route="S_N" depart="502.0" departLane="random" departSpeed="13.89" />
    <vehicle id="155" type="connected_vehicle" route="E_S" depart="502.0" departLane="random" departSpeed="13.89" />
    <vehicle id="156" type="regular_vehicle" route="S_N" depart="507.0" departLane="random" departSpeed="13.89" />
    <vehicle id="157" type="connected_vehicle" route="W_E" depart="508.0" departLane="random" departSpeed="13.89" />
    <vehicle id="158" type="connected_vehicle" route="S_E" depart="508.0" departLane="random" departSpeed="13.89" />
    <vehicle id="159" type="connected_vehicle" route="W_E" depart="508.0" departLane="random" departSpeed="13.89" />
    <vehicle id="160" type="connected_vehicle" route="N_S" depart="509.0" departLane="random" departSpeed="13.89" />
    <vehicle id="161" type="connected_vehicle" route="E_W" depart="511.0" departLane="random" departSpeed="13.89" />
    <vehicle id="162" type="connected_vehicle" route="W_N" depart="511.0" departLane="random" departSpeed="13.89" />
    <vehicle id="163" type="connected_vehicle" route="E_W" depart="517.0" departLane="random" departSpeed="13.89" />
    <vehicle id="164" type="connected_vehicle" route="E_W" depart="522.0" departLane="random" departSpeed="13.89" />
    <vehicle id="165" type="connected_vehicle" route="W_E" depart="522.0" departLane="random" departSpeed="13.89" />
    <vehicle id="166" type="connected_vehicle" route="N_S" depart="524.0" departLane="random" departSpeed="13.89" />
    <vehicle id="167" type="connected_vehicle" route="E_W" depart="524.0" departLane="random" departSpeed="13.89" />
    <vehicle id="168" type="connected_vehicle" route="N_E" depart="528.0" departLane="random" departSpeed="13.89" />
    <vehicle id="169" type="connected_vehicle" route="S_N" depart="529.0" departLane="random" departSpeed="13.89" />
    <vehicle id="170" type="connected_vehicle" route="E_W" depart="529.0" departLane="random" departSpeed="13.89" />
    <vehicle id="171" type="connected_vehicle" route="W_E" depart="529.0" departLane="random" departSpeed="13.89" />
    <vehicle id="172" type="connected_vehicle" route="S_E" depart="530.0" departLane="random" departSpeed="13.89" />
    <vehicle id="173" type="connected_vehicle" route="N_S" depart="530.0" departLane="random" departSpeed="13.89" />
    <vehicle id="174" type="connected_vehicle" route="S_N" depart="533.0" departLane="random" departSpeed="13.89" />
    <vehicle id="175" type="connected_vehicle" route="N_S" depart="538.0" departLane="random" departSpeed="13.89" />
    <vehicle id="176" type="connected_vehicle" route="E_W" depart="544.0" departLane="random" departSpeed="13.89" />
    <vehicle id="177" type="connected_vehicle" route="S_E" depart="544.0" departLane="random" departSpeed="13.89" />
    <vehicle id="178" type="connected_vehicle" route="S_N" depart="548.0" departLane="random" departSpeed="13.89" />
    <vehicle id="179" type="connected_vehicle" route="N_S" depart="548.0" departLane="random" departSpeed="13.89" />
    <vehicle id="180" type="connected_vehicle" route="N_S" depart="553.0" departLane="random" departSpeed="13.89" />
    <vehicle id="181" type="connected_vehicle" route="N_E" depart="555.0" departLane="random" departSpeed="13.89" />
    <vehicle id="182" type="connected_vehicle" route="S_N" depart="557.0" departLane="random" departSpeed="13.89" />
    <vehicle id="183" type="connected_vehicle" route="S_N" depart="557.0" departLane="random" departSpeed="13.89" />
    <vehicle id="184" type="regular_vehicle" route="N_S" depart="558.0" departLane="random" departSpeed="13.89" />
    <vehicle id="185" type="connected_vehicle" route="W_S" depart="562.0" departLane="random" departSpeed="13.89" />
    <vehicle id="186" type="connected_vehicle" route="W_E" depart="565.0" departLane="random" departSpeed="13.89" />
    <vehicle id="187" type="connected_vehicle" route="E_W" depart="568.0" departLane="random" departSpeed="13.89" />
    <vehicle id="188" type="connected_vehicle" route="N_S" depart="571.0" departLane="random" departSpeed="13.89" />
    <vehicle id="189" type="connected_vehicle" route="N_S" depart="571.0" departLane="random" departSpeed="13.89" />
    <vehicle id="190" type="regular_vehicle" route="E_W" depart="572.0" departLane="random" departSpeed="13.89" />
    <vehicle id="191" type="connected_vehicle" route="N_W" depart="575.0" departLane="random" departSpeed="13.89" />
    <vehicle id="192" type="connected_vehicle" route="W_N" depart="578.0" departLane="random" departSpeed="13.89" />
    <vehicle id="193" type="connected_vehicle" route="S_E" depart="580.0" departLane="random" departSpeed="13.89" />
    <vehicle id="194" type="connected_vehicle" route="S_W" depart="582.0" departLane="random" departSpeed="13.89" />
    <vehicle id="195" type="connected_vehicle" route="N_W" depart="584.0" departLane="random" departSpeed="13.89" />
    <vehicle id="196" type="connected_vehicle" route="N_S" depart="584.0" departLane="random" departSpeed="13.89" />
    <vehicle id="197" type="regular_vehicle" route="S_N" depart="584.0" departLane="random" departSpeed="13.89" />
    <vehicle id="198" type="connected_vehicle" route="S_E" depart="585.0" departLane="random" departSpeed="13.89" />
    <vehicle id="199" type="connected_vehicle" route="W_E" depart="585.0" departLane="random" departSpeed="13.89" />
    <vehicle id="200" type="connected_vehicle" route="S_E" depart="588.0" departLane="random" departSpeed="13.89" />
    <vehicle id="201" type="regular_vehicle" route="N_S" depart="589.0" departLane="random" departSpeed="13.89" />
    <vehicle id="202" type="connected_vehicle" route="S_N" depart="589.0" departLane="random" departSpeed="13.89" />
    <vehicle id="203" type="connected_vehicle" route="N_S" depart="591.0" departLane="random" departSpeed="13.89" />
    <vehicle id="204" type="connected_vehicle" route="W_E" depart="592.0" departLane="random" departSpeed="13.89" />
    <vehicle id="205" type="connected_vehicle" route="E_N" depart="594.0" departLane="random" departSpeed="13.89" />
    <vehicle id="206" type="connected_vehicle" route="S_N" depart="597.0" departLane="random" departSpeed="13.89" />
    <vehicle id="207" type="regular_vehicle" route="S_N" depart="602.0" departLane="random" departSpeed="13.89" />
    <vehicle id="208" type="connected_vehicle" route="S_N" depart="602.0" departLane="random" departSpeed="13.89" />
    <vehicle id="209" type="connected_vehicle" route="E_W" depart="609.0" departLane="random" departSpeed="13.89" />
    <vehicle id="210" type="connected_vehicle" route="W_E" depart="611.0" departLane="random" departSpeed="13.89" />
    <vehicle id="211" type="connected_vehicle" route="N_E" depart="612.0" departLane="random" departSpeed="13.89" />
    <vehicle id="212" type="connected_vehicle" route="E_W" depart="612.0" departLane="random" departSpeed="13.89" />
    <vehicle id="213" type="connected_vehicle" route="E_W" depart="613.0" departLane="random" departSpeed="13.89" />
    <vehicle id="214" type="connected_vehicle" route="S_E" depart="615.0" departLane="random" departSpeed="13.89" />
    <vehicle id="215" type="connected_vehicle" route="N_E" depart="616.0" departLane="random" departSpeed="13.89" />
    <vehicle id="216" type="connected_vehicle" route="S_N" depart="618.0" departLane="random" departSpeed="13.89" />
    <vehicle id="217" type="connected_vehicle" route="W_E" depart="619.0" departLane="random" departSpeed="13.89" />
    <vehicle id="218" type="connected_vehicle" route="W_E" depart="620.0" departLane="random" departSpeed="13.89" />
    <vehicle id="219" type="connected_vehicle" route="S_N" depart="620.0" departLane="random" departSpeed="13.89" />
    <vehicle id="220" type="connected_vehicle" route="S_N" depart="621.0" departLane="random" departSpeed="13.89" />
    <vehicle id="221" type="connected_vehicle" route="N_S" depart="621.0" departLane="random" departSpeed="13.89" />
    <vehicle id="222" type="connected_vehicle" route="S_N" depart="623.0" departLane="random" departSpeed="13.89" />
    <vehicle id="223" type="connected_vehicle" route="E_W" depart="626.0" departLane="random" departSpeed="13.89" />
    <vehicle id="224" type="connected_vehicle" route="S_N" depart="626.0" departLane="random" departSpeed="13.89" />
    <vehicle id="225" type="connected_vehicle" route="N_S" depart="627.0" departLane="random" departSpeed="13.89" />
    <vehicle id="226" type="connected_vehicle" route="W_N" depart="628.0" departLane="random" departSpeed="13.89" />
    <vehicle id="227" type="connected_vehicle" route="E_W" depart="629.0" departLane="random" departSpeed="13.89" />
    <vehicle id="228" type="regular_vehicle" route="W_E" depart="630.0" departLane="random" departSpeed="13.89" />
    <vehicle id="229" type="connected_vehicle" route="W_E" depart="632.0" departLane="random" departSpeed="13.89" />
    <vehicle id="230" type="connected_vehicle" route="E_S" depart="632.0" departLane="random" departSpeed="13.89" />
    <vehicle id="231" type="connected_vehicle" route="E_W" depart="633.0" departLane="random" departSpeed="13.89" />
    <vehicle id="232" type="connected_vehicle" route="W_E" depart="635.0" departLane="random" departSpeed="13.89" />
    <vehicle id="233" type="regular_vehicle" route="E_W" depart="640.0" departLane="random" departSpeed="13.89" />
    <vehicle id="234" type="connected_vehicle" route="S_N" depart="640.0" departLane="random" departSpeed="13.89" />
    <vehicle id="235" type="regular_vehicle" route="N_E" depart="642.0" departLane="random" departSpeed="13.89" />
    <vehicle id="236" type="connected_vehicle" route="N_S" depart="642.0" departLane="random" departSpeed="13.89" />
    <vehicle id="237" type="connected_vehicle" route="E_W" depart="647.0" departLane="random" departSpeed="13.89" />
    <vehicle id="238" type="connected_vehicle" route="S_N" depart="648.0" departLane="random" departSpeed="13.89" />
    <vehicle id="239" type="connected_vehicle" route="S_N" depart="652.0" departLane="random" departSpeed="13.89" />
    <vehicle id="240" type="connected_vehicle" route="N_S" depart="654.0" departLane="random" departSpeed="13.89" />
    <vehicle id="241" type="connected_vehicle" route="E_W" depart="655.0" departLane="random" departSpeed="13.89" />
    <vehicle id="242" type="connected_vehicle" route="N_S" depart="657.0" departLane="random" departSpeed="13.89" />
    <vehicle id="243" type="connected_vehicle" route="S_E" depart="657.0" departLane="random" departSpeed="13.89" />
    <vehicle id="244" type="connected_vehicle" route="W_E" depart="657.0" departLane="random" departSpeed="13.89" />
    <vehicle id="245" type="connected_vehicle" route="S_N" depart="659.0" departLane="random" departSpeed="13.89" />
    <vehicle id="246" type="connected_vehicle" route="W_E" depart="660.0" departLane="random" departSpeed="13.89" />
    <vehicle id="247" type="connected_vehicle" route="W_E" depart="662.0" departLane="random" departSpeed="13.89" />
    <vehicle id="248" type="connected_vehicle" route="N_S" depart="664.0" departLane="random" departSpeed="13.89" />
    <vehicle id="249" type="connected_vehicle" route="N_E" depart="666.0" departLane="random" departSpeed="13.89" />