<routes>
            <vType accel="1.0" decel="4.5" id="regular_vehicle" length="5.0" minGap="2.5" maxSpeed="25" sigma="0.5" color ="red" />
            <vType accel="1.0" decel="4.5" id="connected_vehicle" length="5.0" minGap="2.5" maxSpeed="25" sigma="0.5" color ="blue" />

            <route id="W_N" edges="W2TL TL2N"/>
            <route id="W_E" edges="W2TL TL2E"/>
            <route id="W_S" edges="W2TL TL2S"/>
            <route id="N_W" edges="N2TL TL2W"/>
            <route id="N_E" edges="N2TL TL2E"/>
            <route id="N_S" edges="N2TL TL2S"/>
            <route id="E_W" edges="E2TL TL2W"/>
            <route id="E_N" edges="E2TL TL2N"/>
            <route id="E_S" edges="E2TL TL2S"/>
            <route id="S_W" edges="S2TL TL2W"/>
            <route id="S_N" edges="S2TL TL2N"/>
            <route id="S_E" edges="S2TL TL2E"/>
    <vehicle id="0" type="connected_vehicle" route="E_W" depart="1.0" departLane="random" departSpeed="13.89" />
    <vehicle id="1" type="connected_vehicle" route="E_W" depart="2.0" departLane="random" departSpeed="13.89" />
    <vehicle id="2" type="regular_vehicle" route="N_S" depart="3.0" departLane="random" departSpeed="13.89" />
    <vehicle id="3" type="connected_vehicle" route="W_E" depart="4.0" departLane="random" departSpeed="13.89" />
    <vehicle id="4" type="connected_vehicle" route="E_W" depart="5.0" departLane="random" departSpeed="13.89" />
    <vehicle id="5" type="connected_vehicle" route="W_E" depart="6.0" departLane="random" departSpeed="13.89" />
    <vehicle id="6" type="connected_vehicle" route="S_N" depart="6.0" departLane="random" departSpeed="13.89" />
    <vehicle id="7" type="connected_vehicle" route="S_N" depart="10.0" departLane="random" departSpeed="13.89" />
    <vehicle id="8" type="connected_vehicle" route="W_E" depart="13.0" departLane="random" departSpeed="13.89" />
    <vehicle id="9" type="connected_vehicle" route="N_E" depart="15.0" departLane="random" departSpeed="13.89" />
    <vehicle id="10" type="connected_vehicle" route="S_N" depart="17.0" departLane="random" departSpeed="13.89" />
    <vehicle id="11" type="connected_vehicle" route="N_E" depart="19.0" departLane="random" departSpeed="13.89" />
    <vehicle id="12" type="connected_vehicle" route="N_E" depart="21.0" departLane="random" departSpeed="13.89" />
    <vehicle id="13" type="connected_vehicle" route="W_E" depart="22.0" departLane="random" departSpeed="13.89" />
    <vehicle id="14" type="connected_vehicle" route="E_W" depart="22.0" departLane="random" departSpeed="13.89" />
    <vehicle id="15" type="connected_vehicle" route="E_W" depart="23.0" departLane="random" departSpeed="13.89" />
    <vehicle id="16" type="connected_vehicle" route="N_S" depart="23.0" departLane="random" departSpeed="13.89" />
    <vehicle id="17" type="regular_vehicle" route="E_W" depart="25.0" departLane="random" departSpeed="13.89" />
    <vehicle id="18" type="connected_vehicle" route="S_N" depart="26.0" departLane="random" departSpeed="13.89" />
    <vehicle id="19" type="connected_vehicle" route="E_W" depart="26.0" departLane="random" departSpeed="13.89" />
    <vehicle id="20" type="connected_vehicle" route="S_N" depart="29.0" departLane="random" departSpeed="13.89" />
    <vehicle id="21" type="connected_vehicle" route="E_N" depart="29.0" departLane="random" departSpeed="13.89" />
    <vehicle id="22" type="connected_vehicle" route="W_E" depart="31.0" departLane="random" departSpeed="13.89" />
    <vehicle id="23" type="connected_vehicle" route="S_N" depart="31.0" departLane="random" departSpeed="13.89" />
    <vehicle id="24" type="connected_vehicle" route="W_S" depart="32.0" departLane="random" departSpeed="13.89" />
    <vehicle id="25" type="connected_vehicle" route="E_W" depart="33.0" departLane="random" departSpeed="13.89" />
    <vehicle id="26" type="connected_vehicle" route="S_W" depart="34.0" departLane="random" departSpeed="13.89" />
    <vehicle id="27" type="connected_vehicle" route="W_S" depart="34.0" departLane="random" departSpeed="13.89" />
    <vehicle id="28" type="connected_vehicle" route="E_W" depart="35.0" departLane="random" departSpeed="13.89" />
    <vehicle id="29" type="connected_vehicle" route="S_N" depart="36.0" departLane="random" departSpeed="13.89" />
    <vehicle id="30" type="connected_vehicle" route="N_S" depart="37.0" departLane="random" departSpeed="13.89" />
    <vehicle id="31" type="regular_vehicle" route="E_W" depart="39.0" departLane="random" departSpeed="13.89" />
    <vehicle id="32" type="connected_vehicle" route="W_E" depart="40.0" departLane="random" departSpeed="13.89" />
    <vehicle id="33" type="connected_vehicle" route="S_E" depart="40.0" departLane="random" departSpeed="13.89" />
    <vehicle id="34" type="regular_vehicle" route="W_E" depart="42.0" departLane="random" departSpeed="13.89" />
    <vehicle id="35" type="regular_vehicle" route="W_E" depart="42.0" departLane="random" departSpeed="13.89" />
    <vehicle id="36" type="connected_vehicle" route="W_E" depart="45.0" departLane="random" departSpeed="13.89" />
    <vehicle id="37" type="connected_vehicle" route="W_N" depart="47.0" departLane="random" departSpeed="13.89" />
    <vehicle id="38" type="connected_vehicle" route="W_E" depart="51.0" departLane="random" departSpeed="13.89" />
    <vehicle id="39" type="connected_vehicle" route="W_E" depart="53.0" departLane="random" departSpeed="13.89" />
    <vehicle id="40" type="connected_vehicle" route="W_E" depart="54.0" departLane="random" departSpeed="13.89" />
    <vehicle id="41" type="connected_vehicle" route="N_S" depart="54.0" departLane="random" departSpeed="13.89" />
    <vehicle id="42" type="connected_vehicle" route="N_W" depart="56.0" departLane="random" departSpeed="13.89" />
    <vehicle id="43" type="connected_vehicle" route="N_S" depart="58.0" departLane="random" departSpeed="13.89" />
    <vehicle id="44" type="connected_vehicle" route="S_N" depart="61.0" departLane="random" departSpeed="13.89" />
    <vehicle id="45" type="connected_vehicle" route="W_E" depart="62.0" departLane="random" departSpeed="13.89" />
    <vehicle id="46" type="connected_vehicle" route="W_E" depart="65.0" departLane="random" departSpeed="13.89" />
    <vehicle id="47" type="connected_vehicle" route="W_E" depart="65.0" departLane="random" departSpeed="13.89" />
    <vehicle id="48" type="connected_vehicle" route="N_W" depart="68.0" departLane="random" departSpeed="13.89" />
    <vehicle id="49" type="connected_vehicle" route="E_W" depart="69.0" departLane="random" departSpeed="13.89" />
    <vehicle id="50" type="connected_vehicle" route="S_E" depart="70.0" departLane="random" departSpeed="13.89" />
    <vehicle id="51" type="connected_vehicle" route="E_W" depart="77.0" departLane="random" departSpeed="13.89" />
    <vehicle id="52" type="connected_vehicle" route="S_N" depart="77.0" departLane="random" departSpeed="13.89" />
    <vehicle id="53" type="connected_vehicle" route="N_S" depart="78.0" departLane="random" departSpeed="13.89" />
    <vehicle id="54" type="connected_vehicle" route="W_E" depart="78.0" departLane="random" departSpeed="13.89" />
    <vehicle id="55" type="connected_vehicle" route="N_S" depart="78.0" departLane="random" departSpeed="13.89" />
    <vehicle id="56" type="connected_vehicle" route="N_S" depart="79.0" departLane="random" departSpeed="13.89" />
    <vehicle id="57" type="connected_vehicle" route="S_N" depart="81.0" departLane="random" departSpeed="13.89" />
    <vehicle id="58" type="connected_vehicle" route="S_N" depart="84.0" departLane="random" departSpeed="13.89" />
    <vehicle id="59" type="connected_vehicle" route="E_W" depart="84.0" departLane="random" departSpeed="13.89" />
    <vehicle id="60" type="connected_vehicle" route="N_S" depart="85.0" departLane="random" departSpeed="13.89" />
    <vehicle id="61" type="connected_vehicle" route="S_W" depart="86.0" departLane="random" departSpeed="13.89" />
    <vehicle id="62" type="connected_vehicle" route="E_W" depart="86.0" departLane="random" departSpeed="13.89" />
    <vehicle id="63" type="connected_vehicle" route="S_W" depart="87.0" departLane="random" departSpeed="13.89" />
    <vehicle id="64" type="connected_vehicle" route="N_E" depart="89.0" departLane="random" departSpeed="13.89" />
    <vehicle id="65" type="connected_vehicle" route="S_N" depart="89.0" departLane="random" departSpeed="13.89" />
    <vehicle id="66" type="connected_vehicle" route="E_W" depart="90.0" departLane="random" departSpeed="13.89" />
    <vehicle id="67" type="connected_vehicle" route="N_S" depart="93.0" departLane="random" departSpeed="13.89" />
    <vehicle id="68" type="connected_vehicle" route="E_S" depart="94.0" departLane="random" departSpeed="13.89" />
    <vehicle id="69" type="connected_vehicle" route="S_N" depart="95.0" departLane="random" departSpeed="13.89" />
    <vehicle id="70" type="connected_vehicle" route="E_N" depart="96.0" departLane="random" departSpeed="13.89" />
    <vehicle id="71" type="connected_vehicle" route="S_N" depart="97.0" departLane="random" departSpeed="13.89" />
    <vehicle id="72" type="connected_vehicle" route="S_N" depart="98.0" departLane="random" departSpeed="13.89" />
    <vehicle id="73" type="regular_vehicle" route="N_S" depart="99.0" departLane="random" departSpeed="13.89" />
    <vehicle id="74" type="connected_vehicle" route="N_E" depart="99.0" departLane="random" departSpeed="13.89" />
    <vehicle id="75" type="regular_vehicle" route="S_N" depart="101.0" departLane="random" departSpeed="13.89" />
    <vehicle id="76" type="connected_vehicle" route="S_N" depart="101.0" departLane="random" departSpeed="13.89" />
    <vehicle id="77" type="connected_vehicle" route="E_W" depart="102.0" departLane="random" departSpeed="13.89" />
    <vehicle id="78" type="connected_vehicle" route="N_S" depart="103.0" departLane="random" departSpeed="13.89" />
    <vehicle id="79" type="regular_vehicle" route="N_S" depart="104.0" departLane="random" departSpeed="13.89" />
    <vehicle id="80" type="connected_vehicle" route="W_N" depart="104.0" departLane="random" departSpeed="13.89" />
    <vehicle id="81" type="regular_vehicle" route="N_S" depart="105.0" departLane="random" departSpeed="13.89" />
    <vehicle id="82" type="connected_vehicle" route="S_N" depart="106.0" departLane="random" departSpeed="13.89" />
    <vehicle id="83" type="connected_vehicle" route="N_S" depart="107.0" departLane="random" departSpeed="13.89" />
    <vehicle id="84" type="connected_vehicle" route="E_S" depart="108.0" departLane="random" departSpeed="13.89" />
    <vehicle id="85" type="connected_vehicle" route="N_E" depart="110.0" departLane="random" departSpeed="13.89" />
    <vehicle id="86" type="regular_vehicle" route="S_E" depart="111.0" departLane="random" departSpeed="13.89" />
    <vehicle id="87" type="connected_vehicle" route="E_W" depart="111.0" departLane="random" departSpeed="13.89" />
    <vehicle id="88" type="connected_vehicle" route="E_W" depart="112.0" departLane="random" departSpeed="13.89" />
    <vehicle id="89" type="connected_vehicle" route="S_N" depart="112.0" departLane="random" departSpeed="13.89" />
    <vehicle id="90" type="connected_vehicle" route="E_S" depart="113.0" departLane="random" departSpeed="13.89" />
    <vehicle id="91" type="connected_vehicle" route="W_S" depart="113.0" departLane="random" departSpeed="13.89" />
    <vehicle id="92" type="connected_vehicle" route="N_S" depart="113.0" departLane="random" departSpeed="13.89" />
    <vehicle id="93" type="connected_vehicle" route="N_S" depart="113.0" departLane="random" departSpeed="13.89" />
    <vehicle id="94" type="connected_vehicle" route="E_W" depart="114.0" departLane="random" departSpeed="13.89" />
    <vehicle id="95" type="connected_vehicle" route="S_W" depart="115.0" departLane="random" departSpeed="13.89" />
    <vehicle id="96" type="regular_vehicle" route="E_W" depart="115.0" departLane="random" departSpeed="13.89" />
    <vehicle id="97" type="connected_vehicle" route="N_S" depart="116.0" departLane="random" departSpeed="13.89" />
    <vehicle id="98" type="connected_vehicle" route="W_E" depart="116.0" departLane="random" departSpeed="13.89" />
    <vehicle id="99" type="connected_vehicle" route="E_W" depart="119.0" departLane="random" departSpeed="13.89" />
    <vehicle id="100" type="connected_vehicle" route="E_W" depart="121.0" departLane="random" departSpeed="13.89" />
    <vehicle id="101" type="connected_vehicle" route="N_S" depart="122.0" departLane="random" departSpeed="13.89" />
    <vehicle id="102" type="connected_vehicle" route="N_S" depart="123.0" departLane="random" departSpeed="13.89" />
    <vehicle id="103" type="connected_vehicle" route="N_S" depart="123.0" departLane="random" departSpeed="13.89" />
    <vehicle id="104" type="connected_vehicle" route="W_E" depart="125.0" departLane="random" departSpeed="13.89" />
    <vehicle id="105" type="connected_vehicle" route="S_W" depart="127.0" departLane="random" departSpeed="13.89" />
    <vehicle id="106" type="regular_vehicle" route="N_S" depart="129.0" departLane="random" departSpeed="13.89" />
    <vehicle id="107" type="connected_vehicle" route="W_E" depart="129.0" departLane="random" departSpeed="13.89" />
    <vehicle id="108" type="regular_vehicle" route="E_N" depart="129.0" departLane="random" departSpeed="13.89" />
    <vehicle id="109" type="connected_vehicle" route="E_W" depart="131.0" departLane="random" departSpeed="13.89" />
    <vehicle id="110" type="connected_vehicle" route="S_W" depart="131.0" departLane="random" departSpeed="13.89" />
    <vehicle id="111" type="connected_vehicle" route="S_N" depart="132.0" departLane="random" departSpeed="13.89" />
    <vehicle id="112" type="connected_vehicle" route="S_W" depart="133.0" departLane="random" departSpeed="13.89" />
    <vehicle id="113" type="connected_vehicle" route="N_E" depart="134.0" departLane="random" departSpeed="13.89" />
    <vehicle id="114" type="connected_vehicle" route="E_W" depart="134.0" departLane="random" departSpeed="13.89" />
    <vehicle id="115" type="regular_vehicle" route="S_N" depart="135.0" departLane="random" departSpeed="13.89" />
    <vehicle id="116" type="connected_vehicle" route="N_S" depart="135.0" departLane="random" departSpeed="13.89" />
    <vehicle id="117" type="connected_vehicle" route="N_S" depart="136.0" departLane="random" departSpeed="13.89" />
    <vehicle id="118" type="regular_vehicle" route="N_S" depart="138.0" departLane="random" departSpeed="13.89" />
    <vehicle id="119" type="connected_vehicle" route="N_S" depart="142.0" departLane="random" departSpeed="13.89" />
    <vehicle id="120" type="connected_vehicle" route="N_S" depart="144.0" departLane="random" departSpeed="13.89" />
    <vehicle id="121" type="connected_vehicle" route="E_S" depart="146.0" departLane="random" departSpeed="13.89" />
    <vehicle id="122" type="connected_vehicle" route="S_E" depart="148.0" departLane="random" departSpeed="13.89" />
    <vehicle id="123" type="regular_vehicle" route="E_N" depart="148.0" departLane="random" departSpeed="13.89" />
    <vehicle id="124" type="connected_vehicle" route="S_E" depart="150.0" departLane="random" departSpeed="13.89" />
    <vehicle id="125" type="connected_vehicle" route="N_W" depart="151.0" departLane="random" departSpeed="13.89" />
    <vehicle id="126" type="connected_vehicle" route="E_W" depart="151.0" departLane="random" departSpeed="13.89" />
    <vehicle id="127" type="connected_vehicle" route="E_W" depart="152.0" departLane="random" departSpeed="13.89" />
    <vehicle id="128" type="connected_vehicle" route="N_S" depart="154.0" departLane="random" departSpeed="13.89" />
    <vehicle id="129" type="connected_vehicle" route="E_S" depart="155.0" departLane="random" departSpeed="13.89" />
    <vehicle id="130" type="connected_vehicle" route="E_W" depart="155.0" departLane="random" departSpeed="13.89" />
    <vehicle id="131" type="connected_vehicle" route="E_W" depart="157.0" departLane="random" departSpeed="13.89" />
    <vehicle id="132" type="connected_vehicle" route="S_N" depart="157.0" departLane="random" departSpeed="13.89" />
    <vehicle id="133" type="regular_vehicle" route="S_N" depart="160.0" departLane="random" departSpeed="13.89" />
    <vehicle id="134" type="connected_vehicle" route="S_W" depart="161.0" departLane="random" departSpeed="13.89" />
    <vehicle id="135" type="connected_vehicle" route="N_S" depart="161.0" departLane="random" departSpeed="13.89" />
    <vehicle id="136" type="regular_vehicle" route="W_E" depart="164.0" departLane="random" departSpeed="13.89" />
    <vehicle id="137" type="connected_vehicle" route="W_E" depart="167.0" departLane="random" departSpeed="13.89" />
    <vehicle id="138" type="connected_vehicle" route="N_W" depart="167.0" departLane="random" departSpeed="13.89" />
    <vehicle id="139" type="connected_vehicle" route="E_W" depart="168.0" departLane="random" departSpeed="13.89" />
    <vehicle id="140" type="connected_vehicle" route="S_N" depart="169.0" departLane="random" departSpeed="13.89" />
    <vehicle id="141" type="connected_vehicle" route="W_N" depart="171.0" departLane="random" departSpeed="13.89" />
    <vehicle id="142" type="connected_vehicle" route="S_E" depart="172.0" departLane="random" departSpeed="13.89" />
    <vehicle id="143" type="connected_vehicle" route="W_E" depart="173.0" departLane="random" departSpeed="13.89" />
    <vehicle id="144" type="connected_vehicle" route="E_W" depart="174.0" departLane="random" departSpeed="13.89" />
    <vehicle id="145" type="regular_vehicle" route="S_N" depart="174.0" departLane="random" departSpeed="13.89" />
    <vehicle id="146" type="connected_vehicle" route="N_E" depart="175.0" departLane="random" departSpeed="13.89" />
    <vehicle id="147" type="connected_vehicle" route="N_W" depart="176.0" departLane="random" departSpeed="13.89" />
    <vehicle id="148" type="connected_vehicle" route="S_E" depart="178.0" departLane="random" departSpeed="13.89" />
    <vehicle id="149" type="connected_vehicle" route="E_W" depart="179.0" departLane="random" departSpeed="13.89" />
    <vehicle id="150" type="regular_vehicle" route="N_E" depart="180.0" departLane="random" departSpeed="13.89" />
    <vehicle id="151" type="connected_vehicle" route="W_S" depart="181.0" departLane="random" departSpeed="13.89" />
    <vehicle id="152" type="connected_vehicle" route="E_W" depart="185.0" departLane="random" departSpeed="13.89" />
    <vehicle id="153" type="connected_vehicle" route="N_S" depart="188.0" departLane="random" departSpeed="13.89" />
    <vehicle id="154" type="connected_vehicle" route="E_W" depart="188.0" departLane="random" departSpeed="13.89" />
    <vehicle id="155" type="regular_vehicle" route="N_S" depart="188.0" departLane="random" departSpeed="13.89" />
    <vehicle id="156" type="connected_vehicle" route="W_E" depart="189.0" departLane="random" departSpeed="13.89" />
    <vehicle id="157" type="connected_vehicle" route="S_N" depart="190.0" departLane="random" departSpeed="13.89" />
    <vehicle id="158" type="connected_vehicle" route="N_E" depart="190.0" departLane="random" departSpeed="13.89" />
    <vehicle id="159" type="connected_vehicle" route="S_N" depart="192.0" departLane="random" departSpeed="13.89" />
    <vehicle id="160" type="connected_vehicle" route="W_E" depart="193.0" departLane="random" departSpeed="13.89" />
    <vehicle id="161" type="regular_vehicle" route="S_N" depart="193.0" departLane="random" departSpeed="13.89" />
    <vehicle id="162" type="connected_vehicle" route="N_E" depart="194.0" departLane="random" departSpeed="13.89" />
    <vehicle id="163" type="connected_vehicle" route="W_E" depart="197.0" departLane="random" departSpeed="13.89" />
    <vehicle id="164" type="connected_vehicle" route="S_N" depart="197.0" departLane="random" departSpeed="13.89" />
    <vehicle id="165" type="connected_vehicle" route="N_S" depart="199.0" departLane="random" departSpeed="13.89" />
    <vehicle id="166" type="connected_vehicle" route="E_W" depart="199.0" departLane="random" departSpeed="13.89" />
    <vehicle id="167" type="connected_vehicle" route="W_E" depart="201.0" departLane="random" departSpeed="13.89" />
    <vehicle id="168" type="connected_vehicle" route="N_S" depart="203.0" departLane="random" departSpeed="13.89" />
    <vehicle id="169" type="connected_vehicle" route="N_E" depart="204.0" departLane="random" departSpeed="13.89" />
    <vehicle id="170" type="connected_vehicle" route="S_N" depart="205.0" departLane="random" departSpeed="13.89" />
    <vehicle id="171" type="connected_vehicle" route="E_W" depart="207.0" departLane="random" departSpeed="13.89" />
    <vehicle id="172" type="connected_vehicle" route="S_N" depart="207.0" departLane="random" departSpeed="13.89" />
    <vehicle id="173" type="regular_vehicle" route="E_W" depart="209.0" departLane="random" departSpeed="13.89" />
    <vehicle id="174" type="connected_vehicle" route="N_S" depart="209.0" departLane="random" departSpeed="13.89" />
    <vehicle id="175" type="regular_vehicle" route="W_E" depart="213.0" departLane="random" departSpeed="13.89" />
    <vehicle id="176" type="regular_vehicle" route="W_E" depart="214.0" departLane="random" departSpeed="13.89" />
    <vehicle id="177" type="connected_vehicle" route="W_E" depart="214.0" departLane="random" departSpeed="13.89" />
    <vehicle id="178" type="connected_vehicle" route="W_S" depart="214.0" departLane="random" departSpeed="13.89" />
    <vehicle id="179" type="connected_vehicle" route="N_S" depart="218.0" departLane="random" departSpeed="13.89" />
    <vehicle id="180" type="connected_vehicle" route="N_S" depart="219.0" departLane="random" departSpeed="13.89" />
    <vehicle id="181" type="connected_vehicle" route="W_E" depart="219.0" departLane="random" departSpeed="13.89" />
    <vehicle id="182" type="connected_vehicle" route="S_N" depart="219.0" departLane="random" departSpeed="13.89" />
    <vehicle id="183" type="regular_vehicle" route="S_N" depart="221.0" departLane="random" departSpeed="13.89" />
    <vehicle id="184" type="connected_vehicle" route="W_E" depart="223.0" departLane="random" departSpeed="13.89" />
    <vehicle id="185" type="connected_vehicle" route="N_S" depart="223.0" departLane="random" departSpeed="13.89" />
    <vehicle id="186" type="connected_vehicle" route="N_E" depart="225.0" departLane="random" departSpeed="13.89" />
    <vehicle id="187" type="connected_vehicle" route="S_N" depart="227.0" departLane="random" departSpeed="13.89" />
    <vehicle id="188" type="connected_vehicle" route="W_E" depart="228.0" departLane="random" departSpeed="13.89" />
    <vehicle id="189" type="connected_vehicle" route="N_S" depart="229.0" departLane="random" departSpeed="13.89" />
    <vehicle id="190" type="regular_vehicle" route="W_S" depart="229.0" departLane="random" departSpeed="13.89" />
    <vehicle id="191" type="connected_vehicle" route="N_S" depart="230.0" departLane="random" departSpeed="13.89" />
    <vehicle id="192" type="connected_vehicle" route="N_S" depart="231.0" departLane="random" departSpeed="13.89" />
    <vehicle id="193" type="connected_vehicle" route="N_S" depart="232.0" departLane="random" departSpeed="13.89" />
    <vehicle id="194" type="connected_vehicle" route="W_E" depart="232.0" departLane="random" departSpeed="13.89" />
    <vehicle id="195" type="connected_vehicle" route="E_W" depart="233.0" departLane="random" departSpeed="13.89" />
    <vehicle id="196" type="connected_vehicle" route="S_N" depart="233.0" departLane="random" departSpeed="13.89" />
    <vehicle id="197" type="connected_vehicle" route="E_W" depart="234.0" departLane="random" departSpeed="13.89" />
    <vehicle id="198" type="connected_vehicle" route="S_N" depart="235.0" departLane="random" departSpeed="13.89" />
    <vehicle id="199" type="connected_vehicle" route="E_W" depart="235.0" departLane="random" departSpeed="13.89" />
    <vehicle id="200" type="connected_vehicle" route="N_S" depart="236.0" departLane="random" departSpeed="13.89" />
    <vehicle id="201" type="connected_vehicle" route="S_N" depart="236.0" departLane="random" departSpeed="13.89" />
    <vehicle id="202" type="connected_vehicle" route="N_S" depart="239.0" departLane="random" departSpeed="13.89" />
    <vehicle id="203" type="connected_vehicle" route="W_S" depart="242.0" departLane="random" departSpeed="13.89" />
    <vehicle id="204" type="connected_vehicle" route="S_N" depart="243.0" departLane="random" departSpeed="13.89" />
    <vehicle id="205" type="connected_vehicle" route="W_E" depart="245.0" departLane="random" departSpeed="13.89" />
    <vehicle id="206" type="connected_vehicle" route="N_S" depart="245.0" departLane="random" departSpeed="13.89" />
    <vehicle id="207" type="regular_vehicle" route="N_S" depart="246.0" departLane="random" departSpeed="13.89" />
    <vehicle id="208" type="connected_vehicle" route="E_W" depart="246.0" departLane="random" departSpeed="13.89" />
    <vehicle id="209" type="connected_vehicle" route="E_W" depart="246.0" departLane="random" departSpeed="13.89" />
    <vehicle id="210" type="connected_vehicle" route="W_E" depart="247.0" departLane="random" departSpeed="13.89" />
    <vehicle id="211" type="connected_vehicle" route="S_E" depart="247.0" departLane="random" departSpeed="13.89" />
    <vehicle id="212" type="connected_vehicle" route="N_S" depart="248.0" departLane="random" departSpeed="13.89" />
    <vehicle id="213" type="connected_vehicle" route="N_W" depart="250.0" departLane="random" departSpeed="13.89" />
    <vehicle id="214" type="connected_vehicle" route="N_E" depart="253.0" departLane="random" departSpeed="13.89" />
    <vehicle id="215" type="connected_vehicle" route="W_N" depart="254.0" departLane="random" departSpeed="13.89" />
    <vehicle id="216" type="connected_vehicle" route="E_W" depart="256.0" departLane="random" departSpeed="13.89" />
    <vehicle id="217" type="connected_vehicle" route="N_S" depart="259.0" departLane="random" departSpeed="13.89" />
    <vehicle id="218" type="connected_vehicle" route="E_W" depart="260.0" departLane="random" departSpeed="13.89" />
    <vehicle id="219" type="connected_vehicle" route="W_E" depart="262.0" departLane="random" departSpeed="13.89" />
    <vehicle id="220" type="connected_vehicle" route="S_N" depart="263.0" departLane="random" departSpeed="13.89" />
    <vehicle id="221" type="connected_vehicle" route="W_E" depart="263.0" departLane="random" departSpeed="13.89" />
    <vehicle id="222" type="connected_vehicle" route="N_W" depart="264.0" departLane="random" departSpeed="13.89" />
    <vehicle id="223" type="connected_vehicle" route="E_W" depart="264.0" departLane="random" departSpeed="13.89" />
    <vehicle id="224" type="connected_vehicle" route="E_W" depart="265.0" departLane="random" departSpeed="13.89" />
    <vehicle id="225" type="connected_vehicle" route="E_W" depart="265.0" departLane="random" departSpeed="13.89" />
    <vehicle id="226" type="connected_vehicle" route="W_E" depart="269.0" departLane="random" departSpeed="13.89" />
    <vehicle id="227" type="connected_vehicle" route="E_W" depart="269.0" departLane="random" departSpeed="13.89" />
    <vehicle id="228" type="regular_vehicle" route="N_E" depart="269.0" departLane="random" departSpeed="13.89" />
    <vehicle id="229" type="connected_vehicle" route="W_N" depart="270.0" departLane="random" departSpeed="13.89" />
    <vehicle id="230" type="connected_vehicle" route="N_S" depart="270.0" departLane="random" departSpeed="13.89" />
    <vehicle id="231" type="connected_vehicle" route="N_S" depart="271.0" departLane="random" departSpeed="13.89" />
    <vehicle id="232" type="connected_vehicle" route="W_E" depart="272.0" departLane="random" departSpeed="13.89" />
    <vehicle id="233" type="connected_vehicle" route="N_E" depart="273.0" departLane="random" departSpeed="13.89" />
    <vehicle id="234" type="connected_vehicle" route="S_N" depart="273.0" departLane="random" departSpeed="13.89" />
    <vehicle id="235" type="connected_vehicle" route="E_W" depart="273.0" departLane="random" departSpeed="13.89" />
    <vehicle id="236" type="connected_vehicle" route="S_N" depart="274.0" departLane="random" departSpeed="13.89" />
    <vehicle id="237" type="connected_vehicle" route="S_N" depart="274.0" departLane="random" departSpeed="13.89" />
    <vehicle id="238" type="connected_vehicle" route="N_S" depart="277.0" departLane="random" departSpeed="13.89" />
    <vehicle id="239" type="connected_vehicle" route="W_E" depart="277.0" departLane="random" departSpeed="13.89" />
    <vehicle id="240" type="connected_vehicle" route="N_S" depart="279.0" departLane="random" departSpeed="13.89" />
    <vehicle id="241" type="connected_vehicle" route="E_W" depart="279.0" departLane="random" departSpeed="13.89" />
    <vehicle id="242" type="connected_vehicle" route="E_S" depart="282.0" departLane="random" departSpeed="13.89" />
    <vehicle id="243" type="connected_vehicle" route="N_S" depart="285.0" departLane="random" departSpeed="13.89" />
    <vehicle id="244" type="connected_vehicle" route="S_N" depart="286.0" departLane="random" departSpeed="13.89" />
    <vehicle id="245" type="connected_vehicle" route="W_S" depart="286.0" departLane="random" departSpeed="13.89" />
    <vehicle id="246" type="connected_vehicle" route="W_E" depart="286.0" departLane="random" departSpeed="13.89" />
    <vehicle id="247" type="connected_vehicle" route="E_W" depart="286.0" departLane="random" departSpeed="13.89" />
    <vehicle id="248" type="regular_vehicle" route="W_S" depart="287.0" departLane="random" departSpeed="13.89" />
    <vehicle id="249" type="connected_vehicle" route="S_N" depart="288.0" departLane="random" departSpeed="13.89" />
    <vehicle id="250" type="connected_vehicle" route="E_S" depart="288.0" departLane="random" departSpeed="13.89" />