<routes>
            <vType accel="1.0" decel="4.5" id="regular_vehicle" length="5.0" minGap="2.5" maxSpeed="25" sigma="0.5" color ="red" />
            <vType accel="1.0" decel="4.5" id="connected_vehicle" length="5.0" minGap="2.5" maxSpeed="25" sigma="0.5" color ="blue" />

            <route id="W_N" edges="W2TL TL2N"/>
            <route id="W_E" edges="W2TL TL2E"/>
            <route id="W_S" edges="W2TL TL2S"/>
            <route id="N_W" edges="N2TL TL2W"/>
            <route id="N_E" edges="N2TL TL2E"/>
            <route id="N_S" edges="N2TL TL2S"/>
            <route id="E_W" edges="E2TL TL2W"/>
            <route id="E_N" edges="E2TL TL2N"/>
            <route id="E_S" edges="E2TL TL2S"/>
            <route id="S_W" edges="S2TL TL2W"/>
            <route id="S_N" edges="S2TL TL2N"/>
            <route id="S_E" edges="S2TL TL2E"/>
    <vehicle id="0" type="connected_vehicle" route="E_N" depart="0.0" departLane="random" departSpeed="13.89" />
    <vehicle id="1" type="connected_vehicle" route="N_W" depart="3.0" departLane="random" departSpeed="13.89" />
    <vehicle id="2" type="connected_vehicle" route="N_S" depart="7.0" departLane="random" departSpeed="13.89" />
    <vehicle id="3" type="connected_vehicle" route="N_S" depart="16.0" departLane="random" departSpeed="13.89" />
    <vehicle id="4" type="connected_vehicle" route="S_N" depart="19.0" departLane="random" departSpeed="13.89" />
    <vehicle id="5" type="connected_vehicle" route="E_W" depart="20.0" departLane="random" departSpeed="13.89" />
    <vehicle id="6" type="connected_vehicle" route="N_S" depart="27.0" departLane="random" departSpeed="13.89" />
    <vehicle id="7" type="connected_vehicle" route="N_S" depart="30.0" departLane="random" departSpeed="13.89" />
    <vehicle id="8" type="connected_vehicle" route="W_E" depart="32.0" departLane="random" departSpeed="13.89" />
    <vehicle id="9" type="connected_vehicle" route="N_S" depart="32.0" departLane="random" departSpeed="13.89" />
    <vehicle id="10" type="connected_vehicle" route="W_E" depart="35.0" departLane="random" departSpeed="13.89" />
    <vehicle id="11" type="connected_vehicle" route="S_W" depart="38.0" departLane="random" departSpeed="13.89" />
    <vehicle id="12" type="connected_vehicle" route="W_E" depart="40.0" departLane="random" departSpeed="13.89" />
    <vehicle id="13" type="connected_vehicle" route="W_E" depart="49.0" departLane="random" departSpeed="13.89" />
    <vehicle id="14" type="connected_vehicle" route="N_S" depart="65.0" departLane="random" departSpeed="13.89" />
    <vehicle id="15" type="connected_vehicle" route="W_S" depart="67.0" departLane="random" departSpeed="13.89" />
    <vehicle id="16" type="connected_vehicle" route="W_E" depart="71.0" departLane="random" departSpeed="13.89" />
    <vehicle id="17" type="connected_vehicle" route="N_S" depart="72.0" departLane="random" departSpeed="13.89" />
    <vehicle id="18" type="regular_vehicle" route="W_E" depart="76.0" departLane="random" departSpeed="13.89" />
    <vehicle id="19" type="connected_vehicle" route="E_W" depart="78.0" departLane="random" departSpeed="13.89" />
    <vehicle id="20" type="connected_vehicle" route="N_S" depart="81.0" departLane="random" departSpeed="13.89" />
    <vehicle id="21" type="connected_vehicle" route="W_N" depart="82.0" departLane="random" departSpeed="13.89" />
    <vehicle id="22" type="connected_vehicle" route="W_N" depart="84.0" departLane="random" departSpeed="13.89" />
    <vehicle id="23" type="connected_vehicle" route="N_S" depart="91.0" departLane="random" departSpeed="13.89" />
    <vehicle id="24" type="regular_vehicle" route="S_N" depart="93.0" departLane="random" departSpeed="13.89" />
    <vehicle id="25" type="connected_vehicle" route="E_W" depart="95.0" departLane="random" departSpeed="13.89" />
    <vehicle id="26" type="connected_vehicle" route="W_E" depart="96.0" departLane="random" departSpeed="13.89" />
    <vehicle id="27" type="connected_vehicle" route="W_S" depart="97.0" departLane="random" departSpeed="13.89" />
    <vehicle id="28" type="regular_vehicle" route="W_E" depart="98.0" departLane="random" departSpeed="13.89" />
    <vehicle id="29" type="connected_vehicle" route="E_W" depart="103.0" departLane="random" departSpeed="13.89" />
    <vehicle id="30" type="regular_vehicle" route="E_W" depart="105.0" departLane="random" departSpeed="13.89" />
    <vehicle id="31" type="connected_vehicle" route="W_E" depart="111.0" departLane="random" departSpeed="13.89" />
    <vehicle id="32" type="connected_vehicle" route="W_E" depart="112.0" departLane="random" departSpeed="13.89" />
    <vehicle id="33" type="connected_vehicle" route="S_W" depart="112.0" departLane="random" departSpeed="13.89" />
    <vehicle id="34" type="connected_vehicle" route="E_W" depart="112.0" departLane="random" departSpeed="13.89" />
    <vehicle id="35" type="connected_vehicle" route="W_N" depart="116.0" departLane="random" departSpeed="13.89" />
    <vehicle id="36" type="connected_vehicle" route="N_S" depart="119.0" departLane="random" departSpeed="13.89" />
    <vehicle id="37" type="connected_vehicle" route="S_W" depart="121.0" departLane="random" departSpeed="13.89" />
    <vehicle id="38" type="connected_vehicle" route="E_W" depart="121.0" departLane="random" departSpeed="13.89" />
    <vehicle id="39" type="connected_vehicle" route="E_W" depart="126.0" departLane="random" departSpeed="13.89" />
    <vehicle id="40" type="connected_vehicle" route="S_N" depart="128.0" departLane="random" departSpeed="13.89" />
    <vehicle id="41" type="connected_vehicle" route="W_E" depart="129.0" departLane="random" departSpeed="13.89" />
    <vehicle id="42" type="connected_vehicle" route="E_W" depart="129.0" departLane="random" departSpeed="13.89" />
    <vehicle id="43" type="connected_vehicle" route="N_W" depart="134.0" departLane="random" departSpeed="13.89" />
    <vehicle id="44" type="connected_vehicle" route="W_S" depart="134.0" departLane="random" departSpeed="13.89" />
    <vehicle id="45" type="connected_vehicle" route="W_E" depart="149.0" departLane="random" departSpeed="13.89" />
    <vehicle id="46" type="connected_vehicle" route="N_W" depart="158.0" departLane="random" departSpeed="13.89" />
    <vehicle id="47" type="connected_vehicle" route="S_N" depart="160.0" departLane="random" departSpeed="13.89" />
    <vehicle id="48" type="connected_vehicle" route="E_W" depart="163.0" departLane="random" departSpeed="13.89" />
    <vehicle id="49" type="connected_vehicle" route="N_S" depart="165.0" departLane="random" departSpeed="13.89" />
    <vehicle id="50" type="connected_vehicle" route="S_W" depart="169.0" departLane="random" departSpeed="13.89" />
    <vehicle id="51" type="connected_vehicle" route="W_E" depart="171.0" departLane="random" departSpeed="13.89" />
    <vehicle id="52" type="connected_vehicle" route="W_E" depart="173.0" departLane="random" departSpeed="13.89" />
    <vehicle id="53" type="connected_vehicle" route="S_E" depart="178.0" departLane="random" departSpeed="13.89" />
    <vehicle id="54" type="connected_vehicle" route="E_W" depart="182.0" departLane="random" departSpeed="13.89" />
    <vehicle id="55" type="connected_vehicle" route="E_S" depart="186.0" departLane="random" departSpeed="13.89" />
    <vehicle id="56" type="connected_vehicle" route="E_W" depart="196.0" departLane="random" departSpeed="13.89" />
    <vehicle id="57" type="regular_vehicle" route="W_E" depart="203.0" departLane="random" departSpeed="13.89" />
    <vehicle id="58" type="connected_vehicle" route="W_E" depart="205.0" departLane="random" departSpeed="13.89" />
    <vehicle id="59" type="connected_vehicle" route="W_E" depart="209.0" departLane="random" departSpeed="13.89" />
    <vehicle id="60" type="connected_vehicle" route="E_W" depart="212.0" departLane="random" departSpeed="13.89" />
    <vehicle id="61" type="connected_vehicle" route="W_E" depart="215.0" departLane="random" departSpeed="13.89" />
    <vehicle id="62" type="connected_vehicle" route="S_N" depart="217.0" departLane="random" departSpeed="13.89" />
    <vehicle id="63" type="connected_vehicle" route="N_W" depart="221.0" departLane="random" departSpeed="13.89" />
    <vehicle id="64" type="connected_vehicle" route="E_W" depart="221.0" departLane="random" departSpeed="13.89" />
    <vehicle id="65" type="connected_vehicle" route="E_W" depart="222.0" departLane="random" departSpeed="13.89" />
    <vehicle id="66" type="connected_vehicle" route="S_N" depart="223.0" departLane="random" departSpeed="13.89" />
    <vehicle id="67" type="connected_vehicle" route="S_E" depart="224.0" departLane="random" departSpeed="13.89" />
    <vehicle id="68" type="connected_vehicle" route="E_S" depart="226.0" departLane="random" departSpeed="13.89" />
    <vehicle id="69" type="regular_vehicle" route="E_S" depart="235.0" departLane="random" departSpeed="13.89" />
    <vehicle id="70" type="connected_vehicle" route="S_N" depart="237.0" departLane="random" departSpeed="13.89" />
    <vehicle id="71" type="connected_vehicle" route="E_W" depart="237.0" departLane="random" departSpeed="13.89" />
    <vehicle id="72" type="connected_vehicle" route="W_E" depart="238.0" departLane="random" departSpeed="13.89" />
    <vehicle id="73" type="connected_vehicle" route="S_N" depart="240.0" departLane="random" departSpeed="13.89" />
    <vehicle id="74" type="connected_vehicle" route="S_N" depart="240.0" departLane="random" departSpeed="13.89" />
    <vehicle id="75" type="connected_vehicle" route="W_N" depart="242.0" departLane="random" departSpeed="13.89" />
    <vehicle id="76" type="regular_vehicle" route="N_S" depart="246.0" departLane="random" departSpeed="13.89" />
    <vehicle id="77" type="connected_vehicle" route="E_W" depart="250.0" departLane="random" departSpeed="13.89" />
    <vehicle id="78" type="connected_vehicle" route="N_S" depart="260.0" departLane="random" departSpeed="13.89" />
    <vehicle id="79" type="connected_vehicle" route="N_S" depart="261.0" departLane="random" departSpeed="13.89" />
    <vehicle id="80" type="connected_vehicle" route="E_W" depart="262.0" departLane="random" departSpeed="13.89" />
    <vehicle id="81" type="regular_vehicle" route="S_E" depart="263.0" departLane="random" departSpeed="13.89" />
    <vehicle id="82" type="connected_vehicle" route="N_S" depart="265.0" departLane="random" departSpeed="13.89" />
    <vehicle id="83" type="connected_vehicle" route="N_S" depart="271.0" departLane="random" departSpeed="13.89" />
    <vehicle id="84" type="connected_vehicle" route="S_N" depart="273.0" departLane="random" departSpeed="13.89" />
    <vehicle id="85" type="connected_vehicle" route="W_E" depart="274.0" departLane="random" departSpeed="13.89" />
    <vehicle id="86" type="connected_vehicle" route="E_W" depart="274.0" departLane="random" departSpeed="13.89" />
    <vehicle id="87" type="connected_vehicle" route="N_S" depart="276.0" departLane="random" departSpeed="13.89" />
    <vehicle id="88" type="connected_vehicle" route="E_W" depart="276.0" departLane="random" departSpeed="13.89" />
    <vehicle id="89" type="connected_vehicle" route="N_S" depart="279.0" departLane="random" departSpeed="13.89" />
    <vehicle id="90" type="connected_vehicle" route="W_E" depart="281.0" departLane="random" departSpeed="13.89" />
    <vehicle id="91" type="connected_vehicle" route="S_N" depart="282.0" departLane="random" departSpeed="13.89" />
    <vehicle id="92" type="connected_vehicle" route="N_E" depart="291.0" departLane="random" departSpeed="13.89" />
    <vehicle id="93" type="connected_vehicle" route="S_N" depart="297.0" departLane="random" departSpeed="13.89" />
    <vehicle id="94" type="connected_vehicle" route="S_N" depart="298.0" departLane="random" departSpeed="13.89" />
    <vehicle id="95" type="connected_vehicle" route="S_N" depart="304.0" departLane="random" departSpeed="13.89" />
    <vehicle id="96" type="connected_vehicle" route="W_E" depart="308.0" departLane="random" departSpeed="13.89" />
    <vehicle id="97" type="connected_vehicle" route="S_N" depart="315.0" departLane="random" departSpeed="13.89" />
    <vehicle id="98" type="connected_vehicle" route="W_E" depart="319.0" departLane="random" departSpeed="13.89" />
    <vehicle id="99" type="connected_vehicle" route="N_W" depart="321.0" departLane="random" departSpeed="13.89" />
    <vehicle id="100" type="connected_vehicle" route="N_S" depart="322.0" departLane="random" departSpeed="13.89" />
    <vehicle id="101" type="connected_vehicle" route="W_E" depart="326.0" departLane="random" departSpeed="13.89" />
    <vehicle id="102" type="connected_vehicle" route="N_W" depart="326.0" departLane="random" departSpeed="13.89" />
    <vehicle id="103" type="connected_vehicle" route="N_S" depart="327.0" departLane="random" departSpeed="13.89" />
    <vehicle id="104" type="regular_vehicle" route="N_W" depart="329.0" departLane="random" departSpeed="13.89" />
    <vehicle id="105" type="connected_vehicle" route="W_E" depart="329.0" departLane="random" departSpeed="13.89" />
    <vehicle id="106" type="connected_vehicle" route="W_S" depart="333.0" departLane="random" departSpeed="13.89" />
    <vehicle id="107" type="connected_vehicle" route="W_E" depart="345.0" departLane="random" departSpeed="13.89" />
    <vehicle id="108" type="connected_vehicle" route="N_S" depart="346.0" departLane="random" departSpeed="13.89" />
    <vehicle id="109" type="connected_vehicle" route="N_E" depart="346.0" departLane="random" departSpeed="13.89" />
    <vehicle id="110" type="connected_vehicle" route="W_E" depart="346.0" departLane="random" departSpeed="13.89" />
    <vehicle id="111" type="connected_vehicle" route="N_S" depart="349.0" departLane="random" departSpeed="13.89" />
    <vehicle id="112" type="connected_vehicle" route="W_E" depart="352.0" departLane="random" departSpeed="13.89" />
    <vehicle id="113" type="connected_vehicle" route="E_W" depart="352.0" departLane="random" departSpeed="13.89" />
    <vehicle id="114" type="connected_vehicle" route="S_N" depart="353.0" departLane="random" departSpeed="13.89" />
    <vehicle id="115" type="connected_vehicle" route="E_W" depart="356.0" departLane="random" departSpeed="13.89" />
    <vehicle id="116" type="connected_vehicle" route="W_S" depart="358.0" departLane="random" departSpeed="13.89" />
    <vehicle id="117" type="connected_vehicle" route="W_N" depart="359.0" departLane="random" departSpeed="13.89" />
    <vehicle id="118" type="connected_vehicle" route="S_N" depart="360.0" departLane="random" departSpeed="13.89" />
    <vehicle id="119" type="connected_vehicle" route="S_N" depart="362.0" departLane="random" departSpeed="13.89" />
    <vehicle id="120" type="connected_vehicle" route="E_W" depart="366.0" departLane="random" departSpeed="13.89" />
    <vehicle id="121" type="connected_vehicle" route="W_E" depart="367.0" departLane="random" departSpeed="13.89" />
    <vehicle id="122" type="connected_vehicle" route="N_S" depart="367.0" departLane="random" departSpeed="13.89" />
    <vehicle id="123" type="connected_vehicle" route="S_E" depart="369.0" departLane="random" departSpeed="13.89" />
    <vehicle id="124" type="connected_vehicle" route="W_S" depart="375.0" departLane="random" departSpeed="13.89" />
    <vehicle id="125" type="regular_vehicle" route="S_N" depart="375.0" departLane="random" departSpeed="13.89" />
    <vehicle id="126" type="connected_vehicle" route="W_N" depart="385.0" departLane="random" departSpeed="13.89" />
    <vehicle id="127" type="connected_vehicle" route="N_E" depart="388.0" departLane="random" departSpeed="13.89" />
    <vehicle id="128" type="connected_vehicle" route="N_E" depart="390.0" departLane="random" departSpeed="13.89" />
    <vehicle id="129" type="connected_vehicle" route="N_S" depart="390.0" departLane="random" departSpeed="13.89" />
    <vehicle id="130" type="connected_vehicle" route="E_N" depart="392.0" departLane="random" departSpeed="13.89" />
    <vehicle id="131" type="connected_vehicle" route="N_S" depart="394.0" departLane="random" departSpeed="13.89" />
    <vehicle id="132" type="connected_vehicle" route="N_S" depart="395.0" departLane="random" departSpeed="13.89" />
    <vehicle id="133" type="connected_vehicle" route="S_N" depart="396.0" departLane="random" departSpeed="13.89" />
    <vehicle id="134" type="connected_vehicle" route="E_W" depart="399.0" departLane="random" departSpeed="13.89" />
    <vehicle id="135" type="connected_vehicle" route="W_E" depart="403.0" departLane="random" departSpeed="13.89" />
    <vehicle id="136" type="connected_vehicle" route="E_W" depart="405.0" departLane="random" departSpeed="13.89" />
    <vehicle id="137" type="connected_vehicle" route="W_E" depart="405.0" departLane="random" departSpeed="13.89" />
    <vehicle id="138" type="connected_vehicle" route="S_N" depart="410.0" departLane="random" departSpeed="13.89" />
    <vehicle id="139" type="connected_vehicle" route="S_N" depart="410.0" departLane="random" departSpeed="13.89" />
    <vehicle id="140" type="connected_vehicle" route="N_S" depart="412.0" departLane="random" departSpeed="13.89" />
    <vehicle id="141" type="connected_vehicle" route="S_N" depart="413.0" departLane="random" departSpeed="13.89" />
    <vehicle id="142" type="regular_vehicle" route="S_W" depart="416.0" departLane="random" departSpeed="13.89" />
    <vehicle id="143" type="connected_vehicle" route="S_N" depart="419.0" departLane="random" departSpeed="13.89" />
    <vehicle id="144" type="connected_vehicle" route="N_W" depart="419.0" departLane="random" departSpeed="13.89" />
    <vehicle id="145" type="connected_vehicle" route="E_S" depart="423.0" departLane="random" departSpeed="13.89" />
    <vehicle id="146" type="connected_vehicle" route="S_W" depart="423.0" departLane="random" departSpeed="13.89" />
    <vehicle id="147" type="connected_vehicle" route="W_E" depart="425.0" departLane="random" departSpeed="13.89" />
    <vehicle id="148" type="connected_vehicle" route="N_S" depart="426.0" departLane="random" departSpeed="13.89" />
    <vehicle id="149" type="regular_vehicle" route="S_N" depart="427.0" departLane="random" departSpeed="13.89" />
    <vehicle id="150" type="connected_vehicle" route="S_W" depart="428.0" departLane="random" departSpeed="13.89" />
    <vehicle id="151" type="connected_vehicle" route="E_W" depart="438.0" departLane="random" departSpeed="13.89" />
    <vehicle id="152" type="regular_vehicle" route="W_E" depart="442.0" departLane="random" departSpeed="13.89" />
    <vehicle id="153" type="connected_vehicle" route="S_N" depart="444.0" departLane="random" departSpeed="13.89" />
    <vehicle id="154" type="connected_vehicle" route="E_W" depart="451.0" departLane="random" departSpeed="13.89" />
    <vehicle id="155" type="regular_vehicle" route="N_E" depart="452.0" departLane="random" departSpeed="13.89" />
    <vehicle id="156" type="connected_vehicle" route="N_S" depart="455.0" departLane="random" departSpeed="13.89" />
    <vehicle id="157" type="connected_vehicle" route="E_W" depart="455.0" departLane="random" departSpeed="13.89" />
    <vehicle id="158" type="connected_vehicle" route="W_S" depart="456.0" departLane="random" departSpeed="13.89" />
    <vehicle id="159" type="connected_vehicle" route="S_W" depart="459.0" departLane="random" departSpeed="13.89" />
    <vehicle id="160" type="connected_vehicle" route="E_N" depart="459.0" departLane="random" departSpeed="13.89" />
    <vehicle id="161" type="connected_vehicle" route="N_S" depart="464.0" departLane="random" departSpeed="13.89" />
    <vehicle id="162" type="connected_vehicle" route="W_E" depart="465.0" departLane="random" departSpeed="13.89" />
    <vehicle id="163" type="connected_vehicle" route="E_W" depart="468.0" departLane="random" departSpeed="13.89" />
    <vehicle id="164" type="connected_vehicle" route="S_N" depart="479.0" departLane="random" departSpeed="13.89" />
    <vehicle id="165" type="regular_vehicle" route="S_N" depart="480.0" departLane="random" departSpeed="13.89" />
    <vehicle id="166" type="regular_vehicle" route="E_W" depart="481.0" departLane="random" departSpeed="13.89" />
    <vehicle id="167" type="connected_vehicle" route="S_N" depart="482.0" departLane="random" departSpeed="13.89" />
    <vehicle id="168" type="connected_vehicle" route="E_N" depart="484.0" departLane="random" departSpeed="13.89" />
    <vehicle id="169" type="regular_vehicle" route="N_S" depart="487.0" departLane="random" departSpeed="13.89" />
    <vehicle id="170" type="connected_vehicle" route="S_N" depart="494.0" departLane="random" departSpeed="13.89" />
    <vehicle id="171" type="connected_vehicle" route="E_W" depart="495.0" departLane="random" departSpeed="13.89" />
    <vehicle id="172" type="connected_vehicle" route="S_W" depart="500.0" departLane="random" departSpeed="13.89" />
    <vehicle id="173" type="connected_vehicle" route="W_E" depart="500.0" departLane="random" departSpeed="13.89" />
    <vehicle id="174" type="connected_vehicle" route="S_N" depart="502.0" departLane="random" departSpeed="13.89" />
    <vehicle id="175" type="connected_vehicle" route="N_S" depart="504.0" departLane="random" departSpeed="13.89" />
    <vehicle id="176" type="regular_vehicle" route="W_E" depart="509.0" departLane="random" departSpeed="13.89" />
    <vehicle id="177" type="connected_vehicle" route="N_S" depart="513.0" departLane="random" departSpeed="13.89" />
    <vehicle id="178" type="connected_vehicle" route="W_N" depart="518.0" departLane="random" departSpeed="13.89" />
    <vehicle id="179" type="connected_vehicle" route="N_S" depart="523.0" departLane="random" departSpeed="13.89" />
    <vehicle id="180" type="connected_vehicle" route="W_E" depart="527.0" departLane="random" departSpeed="13.89" />
    <vehicle id="181" type="connected_vehicle" route="N_S" depart="531.0" departLane="random" departSpeed="13.89" />
    <vehicle id="182" type="connected_vehicle" route="W_E" depart="532.0" departLane="random" departSpeed="13.89" />
    <vehicle id="183" type="connected_vehicle" route="S_W" depart="533.0" departLane="random" departSpeed="13.89" />
    <vehicle id="184" type="connected_vehicle" route="W_E" depart="537.0" departLane="random" departSpeed="13.89" />
    <vehicle id="185" type="connected_vehicle" route="E_N" depart="537.0" departLane="random" departSpeed="13.89" />
    <vehicle id="186" type="connected_vehicle" route="N_S" depart="538.0" departLane="random" departSpeed="13.89" />
    <vehicle id="187" type="regular_vehicle" route="W_E" depart="540.0" departLane="random" departSpeed="13.89" />
    <vehicle id="188" type="connected_vehicle" route="S_N" depart="548.0" departLane="random" departSpeed="13.89" />
    <vehicle id="189" type="connected_vehicle" route="S_N" depart="551.0" departLane="random" departSpeed="13.89" />
    <vehicle id="190" type="connected_vehicle" route="N_S" depart="553.0" departLane="random" departSpeed="13.89" />
    <vehicle id="191" type="connected_vehicle" route="S_N" depart="554.0" departLane="random" departSpeed="13.89" />
    <vehicle id="192" type="regular_vehicle" route="W_E" depart="562.0" departLane="random" departSpeed="13.89" />
    <vehicle id="193" type="connected_vehicle" route="S_E" depart="568.0" departLane="random" departSpeed="13.89" />
    <vehicle id="194" type="connected_vehicle" route="W_E" depart="573.0" departLane="random" departSpeed="13.89" />
    <vehicle id="195" type="regular_vehicle" route="S_N" depart="576.0" departLane="random" departSpeed="13.89" />
    <vehicle id="196" type="connected_vehicle" route="E_W" depart="579.0" departLane="random" departSpeed="13.89" />
    <vehicle id="197" type="connected_vehicle" route="N_E" depart="580.0" departLane="random" departSpeed="13.89" />
    <vehicle id="198" type="connected_vehicle" route="N_S" depart="581.0" departLane="random" departSpeed="13.89" />
    <vehicle id="199" type="connected_vehicle" route="S_N" depart="582.0" departLane="random" departSpeed="13.89" />
    <vehicle id="200" type="connected_vehicle" route="W_E" depart="586.0" departLane="random" departSpeed="13.89" />
    <vehicle id="201" type="connected_vehicle" route="S_N" depart="594.0" departLane="random" departSpeed="13.89" />
    <vehicle id="202" type="connected_vehicle" route="E_W" depart="594.0" departLane="random" departSpeed="13.89" />
    <vehicle id="203" type="connected_vehicle" route="W_E" depart="596.0" departLane="random" departSpeed="13.89" />
    <vehicle id="204" type="connected_vehicle" route="S_E" depart="610.0" departLane="random" departSpeed="13.89" />
    <vehicle id="205" type="connected_vehicle" route="S_N" depart="618.0" departLane="random" departSpeed="13.89" />
    <vehicle id="206" type="connected_vehicle" route="E_W" depart="622.0" departLane="random" departSpeed="13.89" />
    <vehicle id="207" type="connected_vehicle" route="E_W" depart="625.0" departLane="random" departSpeed="13.89" />
    <vehicle id="208" type="connected_vehicle" route="S_E" depart="631.0" departLane="random" departSpeed="13.89" />
    <vehicle id="209" type="connected_vehicle" route="E_S" depart="632.0" departLane="random" departSpeed="13.89" />
    <vehicle id="210" type="regular_vehicle" route="S_W" depart="633.0" departLane="random" departSpeed="13.89" />
    <vehicle id="211" type="connected_vehicle" route="E_N" depart="635.0" departLane="random" departSpeed="13.89" />
    <vehicle id="212" type="connected_vehicle" route="S_N" depart="643.0" departLane="random" departSpeed="13.89" />
    <vehicle id="213" type="connected_vehicle" route="S_N" depart="645.0" departLane="random" departSpeed="13.89" />
    <vehicle id="214" type="connected_vehicle" route="W_E" depart="647.0" departLane="random" departSpeed="13.89" />
    <vehicle id="215" type="connected_vehicle" route="S_N" depart="649.0" departLane="random" departSpeed="13.89" />
    <vehicle id="216" type="connected_vehicle" route="S_N" depart="655.0" departLane="random" departSpeed="13.89" />
    <vehicle id="217" type="connected_vehicle" route="E_S" depart="658.0" departLane="random" departSpeed="13.89" />
    <vehicle id="218" type="connected_vehicle" route="S_N" depart="664.0" departLane="random" departSpeed="13.89" />
    <vehicle id="219" type="connected_vehicle" route="S_N" depart="664.0" departLane="random" departSpeed="13.89" />
    <vehicle id="220" type="connected_vehicle" route="E_W" depart="667.0" departLane="random" departSpeed="13.89" />
    <vehicle id="221" type="connected_vehicle" route="N_W" depart="667.0" departLane="random" departSpeed="13.89" />
    <vehicle id="222" type="regular_vehicle" route="N_W" depart="668.0" departLane="random" departSpeed="13.89" />
    <vehicle id="223" type="connected_vehicle" route="E_W" depart="668.0" departLane="random" departSpeed="13.89" />
    <vehicle id="224" type="connected_vehicle" route="E_N" depart="670.0" departLane="random" departSpeed="13.89" />
    <vehicle id="225" type="connected_vehicle" route="S_N" depart="670.0" departLane="random" departSpeed="13.89" />
    <vehicle id="226" type="connected_vehicle" route="N_S" depart="670.0" departLane="random" departSpeed="13.89" />
    <vehicle id="227" type="connected_vehicle" route="N_S" depart="672.0" departLane="random" departSpeed="13.89" />
    <vehicle id="228" type="connected_vehicle" route="E_W" depart="673.0" departLane="random" departSpeed="13.89" />
    <vehicle id="229" type="regular_vehicle" route="S_N" depart="675.0" departLane="random" departSpeed="13.89" />
    <vehicle id="230" type="connected_vehicle" route="S_N" depart="675.0" departLane="random" departSpeed="13.89" />
    <vehicle id="231" type="connected_vehicle" route="E_N" depart="680.0" departLane="random" departSpeed="13.89" />
    <vehicle id="232" type="connected_vehicle" route="N_S" depart="681.0" departLane="random" departSpeed="13.89" />
    <vehicle id="233" type="connected_vehicle" route="E_W" depart="682.0" departLane="random" departSpeed="13.89" />
    <vehicle id="234" type="connected_vehicle" route="S_E" depart="685.0" departLane="random" departSpeed="13.89" />
    <vehicle id="235" type="connected_vehicle" route="N_S" depart="691.0" departLane="random" departSpeed="13.89" />
    <vehicle id="236" type="connected_vehicle" route="N_E" depart="693.0" departLane="random" departSpeed="13.89" />
    <vehicle id="237" type="connected_vehicle" route="E_S" depart="695.0" departLane="random" departSpeed="13.89" />
    <vehicle id="238" type="regular_vehicle" route="E_W" depart="697.0" departLane="random" departSpeed="13.89" />
    <vehicle id="239" type="regular_vehicle" route="N_S" depart="698.0" departLane="random" departSpeed="13.89" />
    <vehicle id="240" type="connected_vehicle" route="N_S" depart="702.0" departLane="random" departSpeed="13.89" />
    <vehicle id="241" type="connected_vehicle" route="W_E" depart="704.0" departLane="random" departSpeed="13.89" />
    <vehicle id="242" type="connected_vehicle" route="W_E" depart="712.0" departLane="random" departSpeed="13.89" />
    <vehicle id="243" type="connected_vehicle" route="W_S" depart="714.0" departLane="random" departSpeed="13.89" />
    <vehicle id="244" type="regular_vehicle" route="N_S" depart="714.0" departLane="random" departSpeed="13.89" />
    <vehicle id="245" type="connected_vehicle" route="W_E" depart="719.0" departLane="random" departSpeed="13.89" />
    <vehicle id="246" type="connected_vehicle" route="S_N" depart="721.0" departLane="random" departSpeed="13.89" />
    <vehicle id="247" type="connected_vehicle" route="S_N" depart="722.0" departLane="random" departSpeed="13.89" />
    <vehicle id="248" type="connected_vehicle" route="E_N" depart="727.0" departLane="random" departSpeed="13.89" />
    <vehicle id="249" type="connected_vehicle" route="N_S" depart="736.0" departLane="random" departSpeed="13.89" />