<routes>
            <vType accel="1.0" decel="4.5" id="regular_vehicle" length="5.0" minGap="2.5" maxSpeed="25" sigma="0.5" color ="red" />
            <vType accel="1.0" decel="4.5" id="connected_vehicle" length="5.0" minGap="2.5" maxSpeed="25" sigma="0.5" color ="blue" />

            <route id="W_N" edges="W2TL TL2N"/>
            <route id="W_E" edges="W2TL TL2E"/>
            <route id="W_S" edges="W2TL TL2S"/>
            <route id="N_W" edges="N2TL TL2W"/>
            <route id="N_E" edges="N2TL TL2E"/>
            <route id="N_S" edges="N2TL TL2S"/>
            <route id="E_W" edges="E2TL TL2W"/>
            <route id="E_N" edges="E2TL TL2N"/>
            <route id="E_S" edges="E2TL TL2S"/>
            <route id="S_W" edges="S2TL TL2W"/>
            <route id="S_N" edges="S2TL TL2N"/>
            <route id="S_E" edges="S2TL TL2E"/>
    <vehicle id="0" type="connected_vehicle" route="W_E" depart="1.0" departLane="random" departSpeed="13.89" />
    <vehicle id="1" type="connected_vehicle" route="S_N" depart="16.0" departLane="random" departSpeed="13.89" />
    <vehicle id="2" type="connected_vehicle" route="N_S" depart="68.0" departLane="random" departSpeed="13.89" />
    <vehicle id="3" type="connected_vehicle" route="N_S" depart="86.0" departLane="random" departSpeed="13.89" />
    <vehicle id="4" type="connected_vehicle" route="W_E" depart="99.0" departLane="random" departSpeed="13.89" />
    <vehicle id="5" type="connected_vehicle" route="N_E" depart="101.0" departLane="random" departSpeed="13.89" />
    <vehicle id="6" type="connected_vehicle" route="S_N" depart="105.0" departLane="random" departSpeed="13.89" />
    <vehicle id="7" type="connected_vehicle" route="S_E" depart="108.0" departLane="random" departSpeed="13.89" />
    <vehicle id="8" type="connected_vehicle" route="W_E" depart="142.0" departLane="random" departSpeed="13.89" />
    <vehicle id="9" type="connected_vehicle" route="W_E" depart="148.0" departLane="random" departSpeed="13.89" />
    <vehicle id="10" type="connected_vehicle" route="S_N" depart="153.0" departLane="random" departSpeed="13.89" />
    <vehicle id="11" type="connected_vehicle" route="N_S" depart="211.0" departLane="random" departSpeed="13.89" />
    <vehicle id="12" type="connected_vehicle" route="E_W" depart="241.0" departLane="random" departSpeed="13.89" />
    <vehicle id="13" type="connected_vehicle" route="N_S" depart="270.0" departLane="random" departSpeed="13.89" />
    <vehicle id="14" type="connected_vehicle" route="S_W" depart="289.0" departLane="random" departSpeed="13.89" />
    <vehicle id="15" type="connected_vehicle" route="W_E" depart="324.0" departLane="random" departSpeed="13.89" />
    <vehicle id="16" type="connected_vehicle" route="S_N" depart="357.0" departLane="random" departSpeed="13.89" />
    <vehicle id="17" type="connected_vehicle" route="E_W" depart="460.0" departLane="random" departSpeed="13.89" />
    <vehicle id="18" type="connected_vehicle" route="W_N" depart="500.0" departLane="random" departSpeed="13.89" />
    <vehicle id="19" type="connected_vehicle" route="S_N" depart="532.0" departLane="random" departSpeed="13.89" />
    <vehicle id="20" type="connected_vehicle" route="W_S" depart="554.0" departLane="random" departSpeed="13.89" />
    <vehicle id="21" type="connected_vehicle" route="E_W" depart="559.0" departLane="random" departSpeed="13.89" />
    <vehicle id="22" type="connected_vehicle" route="E_W" depart="582.0" departLane="random" departSpeed="13.89" />
    <vehicle id="23" type="connected_vehicle" route="W_E" depart="621.0" departLane="random" departSpeed="13.89" />
    <vehicle id="24" type="connected_vehicle" route="S_N" depart="657.0" departLane="random" departSpeed="13.89" />
    <vehicle id="25" type="connected_vehicle" route="W_E" depart="672.0" departLane="random" departSpeed="13.89" />
    <vehicle id="26" type="connected_vehicle" route="E_W" depart="673.0" departLane="random" departSpeed="13.89" />
    <vehicle id="27" type="connected_vehicle" route="N_W" depart="704.0" departLane="random" departSpeed="13.89" />
    <vehicle id="28" type="connected_vehicle" route="E_W" depart="739.0" departLane="random" departSpeed="13.89" />
    <vehicle id="29" type="connected_vehicle" route="S_E" depart="742.0" departLane="random" departSpeed="13.89" />
    <vehicle id="30" type="connected_vehicle" route="S_W" depart="744.0" departLane="random" departSpeed="13.89" />
    <vehicle id="31" type="connected_vehicle" route="W_E" depart="754.0" departLane="random" departSpeed="13.89" />
    <vehicle id="32" type="connected_vehicle" route="N_S" depart="760.0" departLane="random" departSpeed="13.89" />
    <vehicle id="33" type="connected_vehicle" route="N_S" depart="794.0" departLane="random" departSpeed="13.89" />
    <vehicle id="34" type="connected_vehicle" route="N_S" depart="795.0" departLane="random" departSpeed="13.89" />
    <vehicle id="35" type="connected_vehicle" route="S_N" depart="895.0" departLane="random" departSpeed="13.89" />
    <vehicle id="36" type="connected_vehicle" route="W_E" depart="919.0" departLane="random" departSpeed="13.89" />
    <vehicle id="37" type="connected_vehicle" route="W_E" depart="933.0" departLane="random" departSpeed="13.89" />
    <vehicle id="38" type="connected_vehicle" route="W_E" depart="1008.0" departLane="random" departSpeed="13.89" />
    <vehicle id="39" type="connected_vehicle" route="N_S" depart="1073.0" departLane="random" departSpeed="13.89" />
    <vehicle id="40" type="connected_vehicle" route="E_W" depart="1107.0" departLane="random" departSpeed="13.89" />
    <vehicle id="41" type="connected_vehicle" route="E_W" depart="1146.0" departLane="random" departSpeed="13.89" />
    <vehicle id="42" type="connected_vehicle" route="E_N" depart="1222.0" departLane="random" departSpeed="13.89" />
    <vehicle id="43" type="connected_vehicle" route="E_W" depart="1261.0" departLane="random" departSpeed="13.89" />
    <vehicle id="44" type="connected_vehicle" route="W_S" depart="1283.0" departLane="random" departSpeed="13.89" />
    <vehicle id="45" type="connected_vehicle" route="W_N" depart="1333.0" departLane="random" departSpeed="13.89" />
    <vehicle id="46" type="connected_vehicle" route="E_W" depart="1438.0" departLane="random" departSpeed="13.89" />
    <vehicle id="47" type="connected_vehicle" route="S_N" depart="1461.0" departLane="random" departSpeed="13.89" />
    <vehicle id="48" type="connected_vehicle" route="E_W" depart="1512.0" departLane="random" departSpeed="13.89" />
    <vehicle id="49" type="connected_vehicle" route="E_W" depart="1518.0" departLane="random" departSpeed="13.89" />
    <vehicle id="50" type="connected_vehicle" route="S_N" depart="1558.0" departLane="random" departSpeed="13.89" />
    <vehicle id="51" type="connected_vehicle" route="W_E" depart="1590.0" departLane="random" departSpeed="13.89" />
    <vehicle id="52" type="connected_vehicle" route="N_E" depart="1637.0" departLane="random" departSpeed="13.89" />
    <vehicle id="53" type="connected_vehicle" route="N_S" depart="1697.0" departLane="random" departSpeed="13.89" />
    <vehicle id="54" type="connected_vehicle" route="S_W" depart="1708.0" departLane="random" departSpeed="13.89" />
    <vehicle id="55" type="connected_vehicle" route="E_W" depart="1768.0" departLane="random" departSpeed="13.89" />
    <vehicle id="56" type="connected_vehicle" route="E_W" depart="1871.0" departLane="random" departSpeed="13.89" />
    <vehicle id="57" type="connected_vehicle" route="W_E" depart="1883.0" departLane="random" departSpeed="13.89" />
    <vehicle id="58" type="connected_vehicle" route="S_N" depart="1889.0" departLane="random" departSpeed="13.89" />
    <vehicle id="59" type="connected_vehicle" route="W_E" depart="1934.0" departLane="random" departSpeed="13.89" />
    <vehicle id="60" type="connected_vehicle" route="N_W" depart="2100.0" departLane="random" departSpeed="13.89" />
    <vehicle id="61" type="connected_vehicle" route="E_W" depart="2148.0" departLane="random" departSpeed="13.89" />
    <vehicle id="62" type="connected_vehicle" route="E_W" depart="2153.0" departLane="random" departSpeed="13.89" />
    <vehicle id="63" type="connected_vehicle" route="W_S" depart="2210.0" departLane="random" departSpeed="13.89" />
    <vehicle id="64" type="connected_vehicle" route="W_N" depart="2242.0" departLane="random" departSpeed="13.89" />
    <vehicle id="65" type="connected_vehicle" route="E_W" depart="2242.0" departLane="random" departSpeed="13.89" />
    <vehicle id="66" type="connected_vehicle" route="S_N" depart="2258.0" departLane="random" departSpeed="13.89" />
    <vehicle id="67" type="connected_vehicle" route="W_E" depart="2259.0" departLane="random" departSpeed="13.89" />
    <vehicle id="68" type="connected_vehicle" route="W_E" depart="2270.0" departLane="random" departSpeed="13.89" />
    <vehicle id="69" type="connected_vehicle" route="W_E" depart="2280.0" departLane="random" departSpeed="13.89" />
    <vehicle id="70" type="connected_vehicle" route="W_E" depart="2318.0" departLane="random" departSpeed="13.89" />
    <vehicle id="71" type="connected_vehicle" route="N_S" depart="2425.0" departLane="random" departSpeed="13.89" />
    <vehicle id="72" type="connected_vehicle" route="W_E" depart="2436.0" departLane="random" departSpeed="13.89" />
    <vehicle id="73" type="connected_vehicle" route="S_N" depart="2661.0" departLane="random" departSpeed="13.89" />
    <vehicle id="74" type="connected_vehicle" route="S_N" depart="2788.0" departLane="random" departSpeed="13.89" />
    <vehicle id="75" type="connected_vehicle" route="W_E" depart="2854.0" departLane="random" departSpeed="13.89" />
    <vehicle id="76" type="connected_vehicle" route="N_W" depart="2887.0" departLane="random" departSpeed="13.89" />
    <vehicle id="77" type="connected_vehicle" route="N_S" depart="2901.0" departLane="random" departSpeed="13.89" />
    <vehicle id="78" type="connected_vehicle" route="N_S" depart="2917.0" departLane="random" departSpeed="13.89" />
    <vehicle id="79" type="connected_vehicle" route="E_W" depart="2917.0" departLane="random" departSpeed="13.89" />
    <vehicle id="80" type="connected_vehicle" route="S_E" depart="2993.0" departLane="random" departSpeed="13.89" />
    <vehicle id="81" type="connected_vehicle" route="E_W" depart="3012.0" departLane="random" departSpeed="13.89" />
    <vehicle id="82" type="connected_vehicle" route="S_N" depart="3025.0" departLane="random" departSpeed="13.89" />
    <vehicle id="83" type="connected_vehicle" route="S_N" depart="3030.0" departLane="random" departSpeed="13.89" />
    <vehicle id="84" type="connected_vehicle" route="W_E" depart="3037.0" departLane="random" departSpeed="13.89" />
    <vehicle id="85" type="connected_vehicle" route="E_W" depart="3106.0" departLane="random" departSpeed="13.89" />
    <vehicle id="86" type="connected_vehicle" route="W_E" depart="3108.0" departLane="random" departSpeed="13.89" />
    <vehicle id="87" type="connected_vehicle" route="S_N" depart="3131.0" departLane="random" departSpeed="13.89" />
    <vehicle id="88" type="connected_vehicle" route="E_W" depart="3171.0" departLane="random" departSpeed="13.89" />
    <vehicle id="89" type="connected_vehicle" route="E_W" depart="3176.0" departLane="random" departSpeed="13.89" />
    <vehicle id="90" type="connected_vehicle" route="W_E" depart="3191.0" departLane="random" departSpeed="13.89" />
    <vehicle id="91" type="connected_vehicle" route="S_N" depart="3341.0" departLane="random" departSpeed="13.89" />
    <vehicle id="92" type="connected_vehicle" route="S_N" depart="3366.0" departLane="random" departSpeed="13.89" />
    <vehicle id="93" type="connected_vehicle" route="S_N" depart="3375.0" departLane="random" departSpeed="13.89" />
    <vehicle id="94" type="connected_vehicle" route="S_N" depart="3377.0" departLane="random" departSpeed="13.89" />
    <vehicle id="95" type="connected_vehicle" route="W_E" depart="3592.0" departLane="random" departSpeed="13.89" />
    <vehicle id="96" type="connected_vehicle" route="E_W" depart="3594.0" departLane="random" departSpeed="13.89" />
    <vehicle id="97" type="connected_vehicle" route="S_N" depart="3630.0" departLane="random" departSpeed="13.89" />
    <vehicle id="98" type="connected_vehicle" route="E_S" depart="3675.0" departLane="random" departSpeed="13.89" />
    <vehicle id="99" type="connected_vehicle" route="S_E" depart="3710.0" departLane="random" departSpeed="13.89" />
    <vehicle id="100" type="connected_vehicle" route="N_E" depart="3717.0" departLane="random" departSpeed="13.89" />
    <vehicle id="101" type="connected_vehicle" route="N_S" depart="3741.0" departLane="random" departSpeed="13.89" />
    <vehicle id="102" type="connected_vehicle" route="E_S" depart="3746.0" departLane="random" departSpeed="13.89" />
    <vehicle id="103" type="connected_vehicle" route="N_S" depart="3748.0" departLane="random" departSpeed="13.89" />
    <vehicle id="104" type="connected_vehicle" route="N_S" depart="3760.0" departLane="random" departSpeed="13.89" />
    <vehicle id="105" type="connected_vehicle" route="W_E" depart="3773.0" departLane="random" departSpeed="13.89" />
    <vehicle id="106" type="connected_vehicle" route="W_E" depart="3789.0" departLane="random" departSpeed="13.89" />
    <vehicle id="107" type="connected_vehicle" route="N_W" depart="3852.0" departLane="random" departSpeed="13.89" />
    <vehicle id="108" type="connected_vehicle" route="W_E" depart="3860.0" departLane="random" departSpeed="13.89" />
    <vehicle id="109" type="connected_vehicle" route="W_E" depart="3900.0" departLane="random" departSpeed="13.89" />
    <vehicle id="110" type="connected_vehicle" route="E_W" depart="3931.0" departLane="random" departSpeed="13.89" />
    <vehicle id="111" type="connected_vehicle" route="N_W" depart="4045.0" departLane="random" departSpeed="13.89" />
    <vehicle id="112" type="connected_vehicle" route="W_E" depart="4051.0" departLane="random" departSpeed="13.89" />
    <vehicle id="113" type="connected_vehicle" route="E_W" depart="4061.0" departLane="random" departSpeed="13.89" />
    <vehicle id="114" type="connected_vehicle" route="E_W" depart="4065.0" departLane="random" departSpeed="13.89" />
    <vehicle id="115" type="connected_vehicle" route="E_W" depart="4066.0" departLane="random" departSpeed="13.89" />
    <vehicle id="116" type="connected_vehicle" route="W_E" depart="4082.0" departLane="random" departSpeed="13.89" />
    <vehicle id="117" type="connected_vehicle" route="N_S" depart="4090.0" departLane="random" departSpeed="13.89" />
    <vehicle id="118" type="connected_vehicle" route="S_E" depart="4273.0" departLane="random" departSpeed="13.89" />
    <vehicle id="119" type="connected_vehicle" route="E_W" depart="4335.0" departLane="random" departSpeed="13.89" />
    <vehicle id="120" type="connected_vehicle" route="S_N" depart="4335.0" departLane="random" departSpeed="13.89" />
    <vehicle id="121" type="connected_vehicle" route="N_S" depart="4370.0" departLane="random" departSpeed="13.89" />
    <vehicle id="122" type="connected_vehicle" route="N_S" depart="4371.0" departLane="random" departSpeed="13.89" />
    <vehicle id="123" type="connected_vehicle" route="S_N" depart="4519.0" departLane="random" departSpeed="13.89" />
    <vehicle id="124" type="connected_vehicle" route="N_S" depart="4559.0" departLane="random" departSpeed="13.89" />
    <vehicle id="125" type="connected_vehicle" route="E_S" depart="4656.0" departLane="random" departSpeed="13.89" />
    <vehicle id="126" type="connected_vehicle" route="W_E" depart="4675.0" departLane="random" departSpeed="13.89" />
    <vehicle id="127" type="connected_vehicle" route="W_S" depart="4745.0" departLane="random" departSpeed="13.89" />
    <vehicle id="128" type="connected_vehicle" route="S_W" depart="4754.0" departLane="random" departSpeed="13.89" />
    <vehicle id="129" type="connected_vehicle" route="E_W" depart="4754.0" departLane="random" departSpeed="13.89" />
    <vehicle id="130" type="connected_vehicle" route="N_S" depart="4782.0" departLane="random" departSpeed="13.89" />
    <vehicle id="131" type="connected_vehicle" route="W_E" depart="4797.0" departLane="random" departSpeed="13.89" />
    <vehicle id="132" type="connected_vehicle" route="E_W" depart="4843.0" departLane="random" departSpeed="13.89" />
    <vehicle id="133" type="connected_vehicle" route="E_W" depart="4850.0" departLane="random" departSpeed="13.89" />
    <vehicle id="134" type="connected_vehicle" route="E_W" depart="4891.0" departLane="random" departSpeed="13.89" />
    <vehicle id="135" type="connected_vehicle" route="W_N" depart="4891.0" departLane="random" departSpeed="13.89" />
    <vehicle id="136" type="connected_vehicle" route="N_S" depart="4919.0" departLane="random" departSpeed="13.89" />
    <vehicle id="137" type="connected_vehicle" route="W_E" depart="4919.0" departLane="random" departSpeed="13.89" />
    <vehicle id="138" type="connected_vehicle" route="W_N" depart="4997.0" departLane="random" departSpeed="13.89" />
    <vehicle id="139" type="connected_vehicle" route="N_S" depart="5022.0" departLane="random" departSpeed="13.89" />
    <vehicle id="140" type="connected_vehicle" route="W_E" depart="5032.0" departLane="random" departSpeed="13.89" />
    <vehicle id="141" type="connected_vehicle" route="N_S" depart="5049.0" departLane="random" departSpeed="13.89" />
    <vehicle id="142" type="connected_vehicle" route="N_S" depart="5114.0" departLane="random" departSpeed="13.89" />
    <vehicle id="143" type="connected_vehicle" route="S_N" depart="5141.0" departLane="random" departSpeed="13.89" />
    <vehicle id="144" type="connected_vehicle" route="S_N" depart="5186.0" departLane="random" departSpeed="13.89" />
    <vehicle id="145" type="connected_vehicle" route="E_W" depart="5224.0" departLane="random" departSpeed="13.89" />
    <vehicle id="146" type="connected_vehicle" route="W_E" depart="5242.0" departLane="random" departSpeed="13.89" />
    <vehicle id="147" type="connected_vehicle" route="W_E" depart="5249.0" departLane="random" departSpeed="13.89" />
    <vehicle id="148" type="connected_vehicle" route="E_N" depart="5354.0" departLane="random" departSpeed="13.89" />
    <vehicle id="149" type="connected_vehicle" route="S_N" depart="5400.0" departLane="random" departSpeed="13.89" />
</routes>
