<routes>
            <vType accel="1.0" decel="4.5" id="regular_vehicle" length="5.0" minGap="2.5" maxSpeed="25" sigma="0.5" color ="red" />
            <vType accel="1.0" decel="4.5" id="connected_vehicle" length="5.0" minGap="2.5" maxSpeed="25" sigma="0.5" color ="blue" />

            <route id="W_N" edges="W2TL TL2N"/>
            <route id="W_E" edges="W2TL TL2E"/>
            <route id="W_S" edges="W2TL TL2S"/>
            <route id="N_W" edges="N2TL TL2W"/>
            <route id="N_E" edges="N2TL TL2E"/>
            <route id="N_S" edges="N2TL TL2S"/>
            <route id="E_W" edges="E2TL TL2W"/>
            <route id="E_N" edges="E2TL TL2N"/>
            <route id="E_S" edges="E2TL TL2S"/>
            <route id="S_W" edges="S2TL TL2W"/>
            <route id="S_N" edges="S2TL TL2N"/>
            <route id="S_E" edges="S2TL TL2E"/>
    <vehicle id="0" type="connected_vehicle" route="N_E" depart="0.0" departLane="random" departSpeed="13.89" />
    <vehicle id="1" type="connected_vehicle" route="S_N" depart="25.0" departLane="random" departSpeed="13.89" />
    <vehicle id="2" type="connected_vehicle" route="E_W" depart="122.0" departLane="random" departSpeed="13.89" />
    <vehicle id="3" type="connected_vehicle" route="N_S" depart="188.0" departLane="random" departSpeed="13.89" />
    <vehicle id="4" type="connected_vehicle" route="E_W" depart="205.0" departLane="random" departSpeed="13.89" />
    <vehicle id="5" type="connected_vehicle" route="N_W" depart="304.0" departLane="random" departSpeed="13.89" />
    <vehicle id="6" type="connected_vehicle" route="S_N" depart="326.0" departLane="random" departSpeed="13.89" />
    <vehicle id="7" type="connected_vehicle" route="S_N" depart="350.0" departLane="random" departSpeed="13.89" />
    <vehicle id="8" type="connected_vehicle" route="N_S" depart="390.0" departLane="random" departSpeed="13.89" />
    <vehicle id="9" type="connected_vehicle" route="S_N" depart="394.0" departLane="random" departSpeed="13.89" />
    <vehicle id="10" type="connected_vehicle" route="W_E" depart="443.0" departLane="random" departSpeed="13.89" />
    <vehicle id="11" type="connected_vehicle" route="E_N" depart="527.0" departLane="random" departSpeed="13.89" />
    <vehicle id="12" type="connected_vehicle" route="N_E" depart="530.0" departLane="random" departSpeed="13.89" />
    <vehicle id="13" type="connected_vehicle" route="E_W" depart="554.0" departLane="random" departSpeed="13.89" />
    <vehicle id="14" type="connected_vehicle" route="W_E" depart="583.0" departLane="random" departSpeed="13.89" />
    <vehicle id="15" type="connected_vehicle" route="W_E" depart="602.0" departLane="random" departSpeed="13.89" />
    <vehicle id="16" type="connected_vehicle" route="E_W" depart="615.0" departLane="random" departSpeed="13.89" />
    <vehicle id="17" type="connected_vehicle" route="S_N" depart="736.0" departLane="random" departSpeed="13.89" />
    <vehicle id="18" type="connected_vehicle" route="S_N" depart="744.0" departLane="random" departSpeed="13.89" />
    <vehicle id="19" type="connected_vehicle" route="S_E" depart="754.0" departLane="random" departSpeed="13.89" />
    <vehicle id="20" type="connected_vehicle" route="E_W" depart="783.0" departLane="random" departSpeed="13.89" />
    <vehicle id="21" type="connected_vehicle" route="N_S" depart="849.0" departLane="random" departSpeed="13.89" />
    <vehicle id="22" type="connected_vehicle" route="N_W" depart="898.0" departLane="random" departSpeed="13.89" />
    <vehicle id="23" type="connected_vehicle" route="E_S" depart="930.0" departLane="random" departSpeed="13.89" />
    <vehicle id="24" type="connected_vehicle" route="S_E" depart="942.0" departLane="random" departSpeed="13.89" />
    <vehicle id="25" type="connected_vehicle" route="W_E" depart="954.0" departLane="random" departSpeed="13.89" />
    <vehicle id="26" type="connected_vehicle" route="E_W" depart="957.0" departLane="random" departSpeed="13.89" />
    <vehicle id="27" type="connected_vehicle" route="N_S" depart="963.0" departLane="random" departSpeed="13.89" />
    <vehicle id="28" type="connected_vehicle" route="N_W" depart="991.0" departLane="random" departSpeed="13.89" />
    <vehicle id="29" type="connected_vehicle" route="E_N" depart="1065.0" departLane="random" departSpeed="13.89" />
    <vehicle id="30" type="connected_vehicle" route="S_N" depart="1085.0" departLane="random" departSpeed="13.89" />
    <vehicle id="31" type="connected_vehicle" route="S_N" depart="1117.0" departLane="random" departSpeed="13.89" />
    <vehicle id="32" type="connected_vehicle" route="N_E" depart="1142.0" departLane="random" departSpeed="13.89" />
    <vehicle id="33" type="connected_vehicle" route="N_W" depart="1208.0" departLane="random" departSpeed="13.89" />
    <vehicle id="34" type="connected_vehicle" route="S_N" depart="1211.0" departLane="random" departSpeed="13.89" />
    <vehicle id="35" type="connected_vehicle" route="S_N" depart="1220.0" departLane="random" departSpeed="13.89" />
    <vehicle id="36" type="connected_vehicle" route="N_S" depart="1238.0" departLane="random" departSpeed="13.89" />
    <vehicle id="37" type="connected_vehicle" route="N_S" depart="1247.0" departLane="random" departSpeed="13.89" />
    <vehicle id="38" type="connected_vehicle" route="S_N" depart="1248.0" departLane="random" departSpeed="13.89" />
    <vehicle id="39" type="connected_vehicle" route="W_E" depart="1257.0" departLane="random" departSpeed="13.89" />
    <vehicle id="40" type="connected_vehicle" route="S_N" depart="1307.0" departLane="random" departSpeed="13.89" />
    <vehicle id="41" type="connected_vehicle" route="W_E" depart="1326.0" departLane="random" departSpeed="13.89" />
    <vehicle id="42" type="connected_vehicle" route="S_N" depart="1339.0" departLane="random" departSpeed="13.89" />
    <vehicle id="43" type="connected_vehicle" route="N_E" depart="1437.0" departLane="random" departSpeed="13.89" />
    <vehicle id="44" type="connected_vehicle" route="S_N" depart="1499.0" departLane="random" departSpeed="13.89" />
    <vehicle id="45" type="connected_vehicle" route="W_E" depart="1532.0" departLane="random" departSpeed="13.89" />
    <vehicle id="46" type="connected_vehicle" route="E_S" depart="1548.0" departLane="random" departSpeed="13.89" />
    <vehicle id="47" type="connected_vehicle" route="W_E" depart="1571.0" departLane="random" departSpeed="13.89" />
    <vehicle id="48" type="connected_vehicle" route="E_W" depart="1582.0" departLane="random" departSpeed="13.89" />
    <vehicle id="49" type="connected_vehicle" route="N_E" depart="1771.0" departLane="random" departSpeed="13.89" />
    <vehicle id="50" type="connected_vehicle" route="S_N" depart="1783.0" departLane="random" departSpeed="13.89" />
    <vehicle id="51" type="connected_vehicle" route="S_N" depart="1864.0" departLane="random" departSpeed="13.89" />
    <vehicle id="52" type="connected_vehicle" route="E_W" depart="1873.0" departLane="random" departSpeed="13.89" />
    <vehicle id="53" type="connected_vehicle" route="S_E" depart="1892.0" departLane="random" departSpeed="13.89" />
    <vehicle id="54" type="connected_vehicle" route="E_S" depart="1912.0" departLane="random" departSpeed="13.89" />
    <vehicle id="55" type="connected_vehicle" route="W_E" depart="1926.0" departLane="random" departSpeed="13.89" />
    <vehicle id="56" type="connected_vehicle" route="W_E" depart="1948.0" departLane="random" departSpeed="13.89" />
    <vehicle id="57" type="connected_vehicle" route="N_S" depart="1958.0" departLane="random" departSpeed="13.89" />
    <vehicle id="58" type="connected_vehicle" route="E_W" depart="2002.0" departLane="random" departSpeed="13.89" />
    <vehicle id="59" type="connected_vehicle" route="N_W" depart="2101.0" departLane="random" departSpeed="13.89" />
    <vehicle id="60" type="connected_vehicle" route="E_N" depart="2124.0" departLane="random" departSpeed="13.89" />
    <vehicle id="61" type="connected_vehicle" route="S_W" depart="2246.0" departLane="random" departSpeed="13.89" />
    <vehicle id="62" type="connected_vehicle" route="N_E" depart="2287.0" departLane="random" departSpeed="13.89" />
    <vehicle id="63" type="connected_vehicle" route="S_N" depart="2304.0" departLane="random" departSpeed="13.89" />
    <vehicle id="64" type="connected_vehicle" route="N_S" depart="2439.0" departLane="random" departSpeed="13.89" />
    <vehicle id="65" type="connected_vehicle" route="E_N" depart="2545.0" departLane="random" departSpeed="13.89" />
    <vehicle id="66" type="connected_vehicle" route="E_W" depart="2558.0" departLane="random" departSpeed="13.89" />
    <vehicle id="67" type="connected_vehicle" route="N_S" depart="2595.0" departLane="random" departSpeed="13.89" />
    <vehicle id="68" type="connected_vehicle" route="S_N" depart="2612.0" departLane="random" departSpeed="13.89" />
    <vehicle id="69" type="connected_vehicle" route="E_W" depart="2628.0" departLane="random" departSpeed="13.89" />
    <vehicle id="70" type="connected_vehicle" route="E_W" depart="2681.0" departLane="random" departSpeed="13.89" />
    <vehicle id="71" type="connected_vehicle" route="W_E" depart="2725.0" departLane="random" departSpeed="13.89" />
    <vehicle id="72" type="connected_vehicle" route="E_W" depart="2791.0" departLane="random" departSpeed="13.89" />
    <vehicle id="73" type="connected_vehicle" route="E_S" depart="2799.0" departLane="random" departSpeed="13.89" />
    <vehicle id="74" type="connected_vehicle" route="S_N" depart="2805.0" departLane="random" departSpeed="13.89" />
    <vehicle id="75" type="connected_vehicle" route="S_N" depart="2808.0" departLane="random" departSpeed="13.89" />
    <vehicle id="76" type="connected_vehicle" route="W_E" depart="2818.0" departLane="random" departSpeed="13.89" />
    <vehicle id="77" type="connected_vehicle" route="N_S" depart="2818.0" departLane="random" departSpeed="13.89" />
    <vehicle id="78" type="connected_vehicle" route="S_E" depart="2867.0" departLane="random" departSpeed="13.89" />
    <vehicle id="79" type="connected_vehicle" route="N_E" depart="2885.0" departLane="random" departSpeed="13.89" />
    <vehicle id="80" type="connected_vehicle" route="S_N" depart="2896.0" departLane="random" departSpeed="13.89" />
    <vehicle id="81" type="connected_vehicle" route="E_W" depart="2978.0" departLane="random" departSpeed="13.89" />
    <vehicle id="82" type="connected_vehicle" route="E_W" depart="2990.0" departLane="random" departSpeed="13.89" />
    <vehicle id="83" type="connected_vehicle" route="E_S" depart="3025.0" departLane="random" departSpeed="13.89" />
    <vehicle id="84" type="connected_vehicle" route="N_S" depart="3046.0" departLane="random" departSpeed="13.89" />
    <vehicle id="85" type="connected_vehicle" route="E_W" depart="3058.0" departLane="random" departSpeed="13.89" />
    <vehicle id="86" type="connected_vehicle" route="N_S" depart="3100.0" departLane="random" departSpeed="13.89" />
    <vehicle id="87" type="connected_vehicle" route="S_N" depart="3126.0" departLane="random" departSpeed="13.89" />
    <vehicle id="88" type="connected_vehicle" route="S_E" depart="3126.0" departLane="random" departSpeed="13.89" />
    <vehicle id="89" type="connected_vehicle" route="E_W" depart="3138.0" departLane="random" departSpeed="13.89" />
    <vehicle id="90" type="connected_vehicle" route="E_S" depart="3159.0" departLane="random" departSpeed="13.89" />
    <vehicle id="91" type="connected_vehicle" route="W_E" depart="3254.0" departLane="random" departSpeed="13.89" />
    <vehicle id="92" type="connected_vehicle" route="E_W" depart="3316.0" departLane="random" departSpeed="13.89" />
    <vehicle id="93" type="connected_vehicle" route="W_E" depart="3377.0" departLane="random" departSpeed="13.89" />
    <vehicle id="94" type="connected_vehicle" route="E_W" depart="3416.0" departLane="random" departSpeed="13.89" />
    <vehicle id="95" type="connected_vehicle" route="W_E" depart="3416.0" departLane="random" departSpeed="13.89" />
    <vehicle id="96" type="connected_vehicle" route="S_N" depart="3439.0" departLane="random" departSpeed="13.89" />
    <vehicle id="97" type="connected_vehicle" route="N_E" depart="3449.0" departLane="random" departSpeed="13.89" />
    <vehicle id="98" type="connected_vehicle" route="E_W" depart="3464.0" departLane="random" departSpeed="13.89" />
    <vehicle id="99" type="connected_vehicle" route="S_N" depart="3468.0" departLane="random" departSpeed="13.89" />
    <vehicle id="100" type="connected_vehicle" route="W_E" depart="3522.0" departLane="random" departSpeed="13.89" />
    <vehicle id="101" type="connected_vehicle" route="W_E" depart="3533.0" departLane="random" departSpeed="13.89" />
    <vehicle id="102" type="connected_vehicle" route="E_W" depart="3552.0" departLane="random" departSpeed="13.89" />
    <vehicle id="103" type="connected_vehicle" route="S_N" depart="3586.0" departLane="random" departSpeed="13.89" />
    <vehicle id="104" type="connected_vehicle" route="S_N" depart="3605.0" departLane="random" departSpeed="13.89" />
    <vehicle id="105" type="connected_vehicle" route="E_S" depart="3630.0" departLane="random" departSpeed="13.89" />
    <vehicle id="106" type="connected_vehicle" route="E_W" depart="3646.0" departLane="random" departSpeed="13.89" />
    <vehicle id="107" type="connected_vehicle" route="E_N" depart="3753.0" departLane="random" departSpeed="13.89" />
    <vehicle id="108" type="connected_vehicle" route="E_W" depart="3775.0" departLane="random" departSpeed="13.89" />
    <vehicle id="109" type="connected_vehicle" route="E_W" depart="3965.0" departLane="random" departSpeed="13.89" />
    <vehicle id="110" type="connected_vehicle" route="E_W" depart="4118.0" departLane="random" departSpeed="13.89" />
    <vehicle id="111" type="connected_vehicle" route="N_S" depart="4132.0" departLane="random" departSpeed="13.89" />
    <vehicle id="112" type="connected_vehicle" route="E_W" depart="4226.0" departLane="random" departSpeed="13.89" />
    <vehicle id="113" type="connected_vehicle" route="S_N" depart="4238.0" departLane="random" departSpeed="13.89" />
    <vehicle id="114" type="connected_vehicle" route="W_N" depart="4262.0" departLane="random" departSpeed="13.89" />
    <vehicle id="115" type="connected_vehicle" route="W_E" depart="4265.0" departLane="random" departSpeed="13.89" />
    <vehicle id="116" type="connected_vehicle" route="N_S" depart="4282.0" departLane="random" departSpeed="13.89" />
    <vehicle id="117" type="connected_vehicle" route="S_N" depart="4296.0" departLane="random" departSpeed="13.89" />
    <vehicle id="118" type="connected_vehicle" route="W_E" depart="4303.0" departLane="random" departSpeed="13.89" />
    <vehicle id="119" type="connected_vehicle" route="E_N" depart="4305.0" departLane="random" departSpeed="13.89" />
    <vehicle id="120" type="connected_vehicle" route="N_W" depart="4356.0" departLane="random" departSpeed="13.89" />
    <vehicle id="121" type="connected_vehicle" route="W_E" depart="4412.0" departLane="random" departSpeed="13.89" />
    <vehicle id="122" type="connected_vehicle" route="W_E" depart="4449.0" departLane="random" departSpeed="13.89" />
    <vehicle id="123" type="connected_vehicle" route="W_E" depart="4490.0" departLane="random" departSpeed="13.89" />
    <vehicle id="124" type="connected_vehicle" route="E_W" depart="4508.0" departLane="random" departSpeed="13.89" />
    <vehicle id="125" type="connected_vehicle" route="E_W" depart="4523.0" departLane="random" departSpeed="13.89" />
    <vehicle id="126" type="connected_vehicle" route="N_S" depart="4539.0" departLane="random" departSpeed="13.89" />
    <vehicle id="127" type="connected_vehicle" route="S_N" depart="4545.0" departLane="random" departSpeed="13.89" />
    <vehicle id="128" type="connected_vehicle" route="N_S" depart="4590.0" departLane="random" departSpeed="13.89" />
    <vehicle id="129" type="connected_vehicle" route="W_N" depart="4599.0" departLane="random" departSpeed="13.89" />
    <vehicle id="130" type="connected_vehicle" route="W_E" depart="4612.0" departLane="random" departSpeed="13.89" />
    <vehicle id="131" type="connected_vehicle" route="S_E" depart="4616.0" departLane="random" departSpeed="13.89" />
    <vehicle id="132" type="connected_vehicle" route="N_S" depart="4634.0" departLane="random" departSpeed="13.89" />
    <vehicle id="133" type="connected_vehicle" route="S_N" depart="4645.0" departLane="random" departSpeed="13.89" />
    <vehicle id="134" type="connected_vehicle" route="W_E" depart="4695.0" departLane="random" departSpeed="13.89" />
    <vehicle id="135" type="connected_vehicle" route="N_S" depart="4777.0" departLane="random" departSpeed="13.89" />
    <vehicle id="136" type="connected_vehicle" route="N_E" depart="4781.0" departLane="random" departSpeed="13.89" />
    <vehicle id="137" type="connected_vehicle" route="S_N" depart="4831.0" departLane="random" departSpeed="13.89" />
    <vehicle id="138" type="connected_vehicle" route="E_W" depart="4834.0" departLane="random" departSpeed="13.89" />
    <vehicle id="139" type="connected_vehicle" route="E_W" depart="4860.0" departLane="random" departSpeed="13.89" />
    <vehicle id="140" type="connected_vehicle" route="S_N" depart="4915.0" departLane="random" departSpeed="13.89" />
    <vehicle id="141" type="connected_vehicle" route="E_W" depart="4985.0" departLane="random" departSpeed="13.89" />
    <vehicle id="142" type="connected_vehicle" route="S_W" depart="5049.0" departLane="random" departSpeed="13.89" />
    <vehicle id="143" type="connected_vehicle" route="S_E" depart="5125.0" departLane="random" departSpeed="13.89" />
    <vehicle id="144" type="connected_vehicle" route="N_W" depart="5159.0" departLane="random" departSpeed="13.89" />
    <vehicle id="145" type="connected_vehicle" route="S_W" depart="5215.0" departLane="random" departSpeed="13.89" />
    <vehicle id="146" type="connected_vehicle" route="S_N" depart="5225.0" departLane="random" departSpeed="13.89" />
    <vehicle id="147" type="connected_vehicle" route="N_W" depart="5234.0" departLane="random" departSpeed="13.89" />
    <vehicle id="148" type="connected_vehicle" route="N_S" depart="5268.0" departLane="random" departSpeed="13.89" />
    <vehicle id="149" type="connected_vehicle" route="W_E" depart="5399.0" departLane="random" departSpeed="13.89" />
</routes>
