<routes>
            <vType accel="1.0" decel="4.5" id="regular_vehicle" length="5.0" minGap="2.5" maxSpeed="25" sigma="0.5" color ="red" />
            <vType accel="1.0" decel="4.5" id="connected_vehicle" length="5.0" minGap="2.5" maxSpeed="25" sigma="0.5" color ="blue" />

            <route id="W_N" edges="W2TL TL2N"/>
            <route id="W_E" edges="W2TL TL2E"/>
            <route id="W_S" edges="W2TL TL2S"/>
            <route id="N_W" edges="N2TL TL2W"/>
            <route id="N_E" edges="N2TL TL2E"/>
            <route id="N_S" edges="N2TL TL2S"/>
            <route id="E_W" edges="E2TL TL2W"/>
            <route id="E_N" edges="E2TL TL2N"/>
            <route id="E_S" edges="E2TL TL2S"/>
            <route id="S_W" edges="S2TL TL2W"/>
            <route id="S_N" edges="S2TL TL2N"/>
            <route id="S_E" edges="S2TL TL2E"/>
    <vehicle id="0" type="connected_vehicle" route="E_W" depart="1.0" departLane="random" departSpeed="13.89" />
    <vehicle id="1" type="connected_vehicle" route="S_N" depart="2.0" departLane="random" departSpeed="13.89" />
    <vehicle id="2" type="connected_vehicle" route="W_E" depart="3.0" departLane="random" departSpeed="13.89" />
    <vehicle id="3" type="connected_vehicle" route="E_W" depart="42.0" departLane="random" departSpeed="13.89" />
    <vehicle id="4" type="connected_vehicle" route="W_E" depart="47.0" departLane="random" departSpeed="13.89" />
    <vehicle id="5" type="connected_vehicle" route="E_W" depart="138.0" departLane="random" departSpeed="13.89" />
    <vehicle id="6" type="connected_vehicle" route="N_S" depart="148.0" departLane="random" departSpeed="13.89" />
    <vehicle id="7" type="connected_vehicle" route="N_S" depart="183.0" departLane="random" departSpeed="13.89" />
    <vehicle id="8" type="connected_vehicle" route="S_N" depart="221.0" departLane="random" departSpeed="13.89" />
    <vehicle id="9" type="connected_vehicle" route="E_W" depart="256.0" departLane="random" departSpeed="13.89" />
    <vehicle id="10" type="connected_vehicle" route="S_N" depart="284.0" departLane="random" departSpeed="13.89" />
    <vehicle id="11" type="connected_vehicle" route="N_S" depart="285.0" departLane="random" departSpeed="13.89" />
    <vehicle id="12" type="connected_vehicle" route="E_W" depart="290.0" departLane="random" departSpeed="13.89" />
    <vehicle id="13" type="connected_vehicle" route="S_N" depart="326.0" departLane="random" departSpeed="13.89" />
    <vehicle id="14" type="connected_vehicle" route="S_N" depart="383.0" departLane="random" departSpeed="13.89" />
    <vehicle id="15" type="connected_vehicle" route="W_E" depart="392.0" departLane="random" departSpeed="13.89" />
    <vehicle id="16" type="connected_vehicle" route="S_W" depart="501.0" departLane="random" departSpeed="13.89" />
    <vehicle id="17" type="connected_vehicle" route="W_S" depart="533.0" departLane="random" departSpeed="13.89" />
    <vehicle id="18" type="regular_vehicle" route="E_W" depart="604.0" departLane="random" departSpeed="13.89" />
    <vehicle id="19" type="regular_vehicle" route="S_N" depart="636.0" departLane="random" departSpeed="13.89" />
    <vehicle id="20" type="connected_vehicle" route="N_S" depart="696.0" departLane="random" departSpeed="13.89" />
    <vehicle id="21" type="connected_vehicle" route="W_E" depart="742.0" departLane="random" departSpeed="13.89" />
    <vehicle id="22" type="regular_vehicle" route="S_W" depart="756.0" departLane="random" departSpeed="13.89" />
    <vehicle id="23" type="connected_vehicle" route="N_S" depart="763.0" departLane="random" departSpeed="13.89" />
    <vehicle id="24" type="connected_vehicle" route="E_W" depart="795.0" departLane="random" departSpeed="13.89" />
    <vehicle id="25" type="connected_vehicle" route="N_S" depart="826.0" departLane="random" departSpeed="13.89" />
    <vehicle id="26" type="connected_vehicle" route="N_S" depart="883.0" departLane="random" departSpeed="13.89" />
    <vehicle id="27" type="regular_vehicle" route="N_S" depart="929.0" departLane="random" departSpeed="13.89" />
    <vehicle id="28" type="connected_vehicle" route="S_N" depart="931.0" departLane="random" departSpeed="13.89" />
    <vehicle id="29" type="connected_vehicle" route="S_N" depart="997.0" departLane="random" departSpeed="13.89" />
    <vehicle id="30" type="connected_vehicle" route="W_E" depart="998.0" departLane="random" departSpeed="13.89" />
    <vehicle id="31" type="regular_vehicle" route="W_N" depart="1015.0" departLane="random" departSpeed="13.89" />
    <vehicle id="32" type="connected_vehicle" route="S_N" depart="1078.0" departLane="random" departSpeed="13.89" />
    <vehicle id="33" type="connected_vehicle" route="N_S" depart="1085.0" departLane="random" departSpeed="13.89" />
    <vehicle id="34" type="connected_vehicle" route="N_S" depart="1095.0" departLane="random" departSpeed="13.89" />
    <vehicle id="35" type="connected_vehicle" route="W_N" depart="1165.0" departLane="random" departSpeed="13.89" />
    <vehicle id="36" type="connected_vehicle" route="S_N" depart="1178.0" departLane="random" departSpeed="13.89" />
    <vehicle id="37" type="connected_vehicle" route="S_N" depart="1190.0" departLane="random" departSpeed="13.89" />
    <vehicle id="38" type="connected_vehicle" route="N_S" depart="1267.0" departLane="random" departSpeed="13.89" />
    <vehicle id="39" type="connected_vehicle" route="S_E" depart="1268.0" departLane="random" departSpeed="13.89" />
    <vehicle id="40" type="connected_vehicle" route="N_S" depart="1326.0" departLane="random" departSpeed="13.89" />
    <vehicle id="41" type="connected_vehicle" route="S_N" depart="1333.0" departLane="random" departSpeed="13.89" />
    <vehicle id="42" type="connected_vehicle" route="N_S" depart="1334.0" departLane="random" departSpeed="13.89" />
    <vehicle id="43" type="connected_vehicle" route="W_E" depart="1430.0" departLane="random" departSpeed="13.89" />
    <vehicle id="44" type="connected_vehicle" route="E_W" depart="1458.0" departLane="random" departSpeed="13.89" />
    <vehicle id="45" type="connected_vehicle" route="W_N" depart="1468.0" departLane="random" departSpeed="13.89" />
    <vehicle id="46" type="connected_vehicle" route="S_N" depart="1509.0" departLane="random" departSpeed="13.89" />
    <vehicle id="47" type="connected_vehicle" route="W_N" depart="1535.0" departLane="random" departSpeed="13.89" />
    <vehicle id="48" type="connected_vehicle" route="E_W" depart="1581.0" departLane="random" departSpeed="13.89" />
    <vehicle id="49" type="connected_vehicle" route="E_W" depart="1593.0" departLane="random" departSpeed="13.89" />
    <vehicle id="50" type="connected_vehicle" route="W_E" depart="1596.0" departLane="random" departSpeed="13.89" />
    <vehicle id="51" type="connected_vehicle" route="S_N" depart="1677.0" departLane="random" departSpeed="13.89" />
    <vehicle id="52" type="connected_vehicle" route="S_W" depart="1893.0" departLane="random" departSpeed="13.89" />
    <vehicle id="53" type="connected_vehicle" route="N_W" depart="1902.0" departLane="random" departSpeed="13.89" />
    <vehicle id="54" type="connected_vehicle" route="S_N" depart="1977.0" departLane="random" departSpeed="13.89" />
    <vehicle id="55" type="connected_vehicle" route="W_E" depart="1989.0" departLane="random" departSpeed="13.89" />
    <vehicle id="56" type="connected_vehicle" route="N_S" depart="2093.0" departLane="random" departSpeed="13.89" />
    <vehicle id="57" type="connected_vehicle" route="W_E" depart="2167.0" departLane="random" departSpeed="13.89" />
    <vehicle id="58" type="connected_vehicle" route="S_E" depart="2203.0" departLane="random" departSpeed="13.89" />
    <vehicle id="59" type="connected_vehicle" route="W_E" depart="2228.0" departLane="random" departSpeed="13.89" />
    <vehicle id="60" type="connected_vehicle" route="N_W" depart="2234.0" departLane="random" departSpeed="13.89" />
    <vehicle id="61" type="connected_vehicle" route="S_W" depart="2254.0" departLane="random" departSpeed="13.89" />
    <vehicle id="62" type="connected_vehicle" route="S_E" depart="2267.0" departLane="random" departSpeed="13.89" />
    <vehicle id="63" type="connected_vehicle" route="S_E" depart="2313.0" departLane="random" departSpeed="13.89" />
    <vehicle id="64" type="connected_vehicle" route="S_N" depart="2385.0" departLane="random" departSpeed="13.89" />
    <vehicle id="65" type="connected_vehicle" route="W_E" depart="2387.0" departLane="random" departSpeed="13.89" />
    <vehicle id="66" type="connected_vehicle" route="W_E" depart="2421.0" departLane="random" departSpeed="13.89" />
    <vehicle id="67" type="regular_vehicle" route="N_S" depart="2582.0" departLane="random" departSpeed="13.89" />
    <vehicle id="68" type="connected_vehicle" route="E_S" depart="2635.0" departLane="random" departSpeed="13.89" />
    <vehicle id="69" type="connected_vehicle" route="S_N" depart="2636.0" departLane="random" departSpeed="13.89" />
    <vehicle id="70" type="connected_vehicle" route="S_N" depart="2780.0" departLane="random" departSpeed="13.89" />
    <vehicle id="71" type="regular_vehicle" route="S_N" depart="2781.0" departLane="random" departSpeed="13.89" />
    <vehicle id="72" type="connected_vehicle" route="E_W" depart="2782.0" departLane="random" departSpeed="13.89" />
    <vehicle id="73" type="connected_vehicle" route="N_S" depart="2789.0" departLane="random" departSpeed="13.89" />
    <vehicle id="74" type="regular_vehicle" route="S_N" depart="2793.0" departLane="random" departSpeed="13.89" />
    <vehicle id="75" type="connected_vehicle" route="N_S" depart="2842.0" departLane="random" departSpeed="13.89" />
    <vehicle id="76" type="connected_vehicle" route="S_N" depart="2859.0" departLane="random" departSpeed="13.89" />
    <vehicle id="77" type="connected_vehicle" route="W_E" depart="2888.0" departLane="random" departSpeed="13.89" />
    <vehicle id="78" type="connected_vehicle" route="S_W" depart="2892.0" departLane="random" departSpeed="13.89" />
    <vehicle id="79" type="connected_vehicle" route="S_N" depart="2904.0" departLane="random" departSpeed="13.89" />
    <vehicle id="80" type="connected_vehicle" route="W_N" depart="2917.0" departLane="random" departSpeed="13.89" />
    <vehicle id="81" type="connected_vehicle" route="E_W" depart="2927.0" departLane="random" departSpeed="13.89" />
    <vehicle id="82" type="connected_vehicle" route="E_N" depart="2977.0" departLane="random" departSpeed="13.89" />
    <vehicle id="83" type="connected_vehicle" route="S_N" depart="2987.0" departLane="random" departSpeed="13.89" />
    <vehicle id="84" type="connected_vehicle" route="W_E" depart="3033.0" departLane="random" departSpeed="13.89" />
    <vehicle id="85" type="connected_vehicle" route="E_S" depart="3039.0" departLane="random" departSpeed="13.89" />
    <vehicle id="86" type="connected_vehicle" route="W_E" depart="3086.0" departLane="random" departSpeed="13.89" />
    <vehicle id="87" type="connected_vehicle" route="W_E" depart="3117.0" departLane="random" departSpeed="13.89" />
    <vehicle id="88" type="connected_vehicle" route="E_W" depart="3130.0" departLane="random" departSpeed="13.89" />
    <vehicle id="89" type="connected_vehicle" route="E_W" depart="3136.0" departLane="random" departSpeed="13.89" />
    <vehicle id="90" type="connected_vehicle" route="W_E" depart="3163.0" departLane="random" departSpeed="13.89" />
    <vehicle id="91" type="connected_vehicle" route="N_S" depart="3206.0" departLane="random" departSpeed="13.89" />
    <vehicle id="92" type="connected_vehicle" route="W_E" depart="3230.0" departLane="random" departSpeed="13.89" />
    <vehicle id="93" type="connected_vehicle" route="S_N" depart="3258.0" departLane="random" departSpeed="13.89" />
    <vehicle id="94" type="connected_vehicle" route="E_W" depart="3367.0" departLane="random" departSpeed="13.89" />
    <vehicle id="95" type="connected_vehicle" route="S_N" depart="3398.0" departLane="random" departSpeed="13.89" />
    <vehicle id="96" type="connected_vehicle" route="W_E" depart="3420.0" departLane="random" departSpeed="13.89" />
    <vehicle id="97" type="connected_vehicle" route="E_W" depart="3510.0" departLane="random" departSpeed="13.89" />
    <vehicle id="98" type="connected_vehicle" route="E_W" depart="3529.0" departLane="random" departSpeed="13.89" />
    <vehicle id="99" type="connected_vehicle" route="E_N" depart="3549.0" departLane="random" departSpeed="13.89" />
    <vehicle id="100" type="connected_vehicle" route="N_S" depart="3567.0" departLane="random" departSpeed="13.89" />
    <vehicle id="101" type="regular_vehicle" route="S_N" depart="3603.0" departLane="random" departSpeed="13.89" />
    <vehicle id="102" type="connected_vehicle" route="S_N" depart="3634.0" departLane="random" departSpeed="13.89" />
    <vehicle id="103" type="connected_vehicle" route="E_W" depart="3672.0" departLane="random" departSpeed="13.89" />
    <vehicle id="104" type="connected_vehicle" route="S_N" depart="3700.0" departLane="random" departSpeed="13.89" />
    <vehicle id="105" type="connected_vehicle" route="N_S" depart="3742.0" departLane="random" departSpeed="13.89" />
    <vehicle id="106" type="connected_vehicle" route="S_N" depart="3798.0" departLane="random" departSpeed="13.89" />
    <vehicle id="107" type="connected_vehicle" route="N_S" depart="3827.0" departLane="random" departSpeed="13.89" />
    <vehicle id="108" type="connected_vehicle" route="N_W" depart="3851.0" departLane="random" departSpeed="13.89" />
    <vehicle id="109" type="connected_vehicle" route="E_W" depart="3976.0" departLane="random" departSpeed="13.89" />
    <vehicle id="110" type="connected_vehicle" route="E_S" depart="3983.0" departLane="random" departSpeed="13.89" />
    <vehicle id="111" type="connected_vehicle" route="E_S" depart="3991.0" departLane="random" departSpeed="13.89" />
    <vehicle id="112" type="connected_vehicle" route="S_N" depart="4016.0" departLane="random" departSpeed="13.89" />
    <vehicle id="113" type="connected_vehicle" route="N_S" depart="4019.0" departLane="random" departSpeed="13.89" />
    <vehicle id="114" type="connected_vehicle" route="S_W" depart="4082.0" departLane="random" departSpeed="13.89" />
    <vehicle id="115" type="connected_vehicle" route="N_S" depart="4099.0" departLane="random" departSpeed="13.89" />
    <vehicle id="116" type="connected_vehicle" route="N_S" depart="4180.0" departLane="random" departSpeed="13.89" />
    <vehicle id="117" type="connected_vehicle" route="N_S" depart="4189.0" departLane="random" departSpeed="13.89" />
    <vehicle id="118" type="connected_vehicle" route="W_E" depart="4210.0" departLane="random" departSpeed="13.89" />
    <vehicle id="119" type="connected_vehicle" route="E_S" depart="4213.0" departLane="random" departSpeed="13.89" />
    <vehicle id="120" type="regular_vehicle" route="W_E" depart="4358.0" departLane="random" departSpeed="13.89" />
    <vehicle id="121" type="connected_vehicle" route="S_N" depart="4359.0" departLane="random" departSpeed="13.89" />
    <vehicle id="122" type="regular_vehicle" route="E_N" depart="4414.0" departLane="random" departSpeed="13.89" />
    <vehicle id="123" type="connected_vehicle" route="N_S" depart="4417.0" departLane="random" departSpeed="13.89" />
    <vehicle id="124" type="connected_vehicle" route="S_N" depart="4454.0" departLane="random" departSpeed="13.89" />
    <vehicle id="125" type="connected_vehicle" route="N_S" depart="4507.0" departLane="random" departSpeed="13.89" />
    <vehicle id="126" type="connected_vehicle" route="S_N" depart="4567.0" departLane="random" departSpeed="13.89" />
    <vehicle id="127" type="connected_vehicle" route="W_E" depart="4588.0" departLane="random" departSpeed="13.89" />
    <vehicle id="128" type="connected_vehicle" route="W_E" depart="4609.0" departLane="random" departSpeed="13.89" />
    <vehicle id="129" type="connected_vehicle" route="W_E" depart="4665.0" departLane="random" departSpeed="13.89" />
    <vehicle id="130" type="connected_vehicle" route="E_W" depart="4691.0" departLane="random" departSpeed="13.89" />
    <vehicle id="131" type="connected_vehicle" route="N_S" depart="4702.0" departLane="random" departSpeed="13.89" />
    <vehicle id="132" type="connected_vehicle" route="S_N" depart="4796.0" departLane="random" departSpeed="13.89" />
    <vehicle id="133" type="connected_vehicle" route="W_E" depart="4823.0" departLane="random" departSpeed="13.89" />
    <vehicle id="134" type="connected_vehicle" route="E_N" depart="4834.0" departLane="random" departSpeed="13.89" />
    <vehicle id="135" type="connected_vehicle" route="S_N" depart="4846.0" departLane="random" departSpeed="13.89" />
    <vehicle id="136" type="connected_vehicle" route="S_N" depart="4960.0" departLane="random" departSpeed="13.89" />
    <vehicle id="137" type="connected_vehicle" route="E_S" depart="4975.0" departLane="random" departSpeed="13.89" />
    <vehicle id="138" type="connected_vehicle" route="S_N" depart="5014.0" departLane="random" departSpeed="13.89" />
    <vehicle id="139" type="connected_vehicle" route="W_E" depart="5021.0" departLane="random" departSpeed="13.89" />
    <vehicle id="140" type="regular_vehicle" route="S_N" depart="5041.0" departLane="random" departSpeed="13.89" />
    <vehicle id="141" type="connected_vehicle" route="N_S" depart="5047.0" departLane="random" departSpeed="13.89" />
    <vehicle id="142" type="connected_vehicle" route="N_S" depart="5066.0" departLane="random" departSpeed="13.89" />
    <vehicle id="143" type="connected_vehicle" route="W_E" depart="5158.0" departLane="random" departSpeed="13.89" />
    <vehicle id="144" type="connected_vehicle" route="S_N" depart="5221.0" departLane="random" departSpeed="13.89" />
    <vehicle id="145" type="connected_vehicle" route="E_W" depart="5258.0" departLane="random" departSpeed="13.89" />
    <vehicle id="146" type="connected_vehicle" route="W_E" depart="5346.0" departLane="random" departSpeed="13.89" />
    <vehicle id="147" type="connected_vehicle" route="S_N" depart="5373.0" departLane="random" departSpeed="13.89" />
    <vehicle id="148" type="connected_vehicle" route="W_E" depart="5394.0" departLane="random" departSpeed="13.89" />
    <vehicle id="149" type="connected_vehicle" route="N_E" depart="5400.0" departLane="random" departSpeed="13.89" />
</routes>
