<routes>
            <vType accel="1.0" decel="4.5" id="regular_vehicle" length="5.0" minGap="2.5" maxSpeed="25" sigma="0.5" color ="red" />
            <vType accel="1.0" decel="4.5" id="connected_vehicle" length="5.0" minGap="2.5" maxSpeed="25" sigma="0.5" color ="blue" />

            <route id="W_N" edges="W2TL TL2N"/>
            <route id="W_E" edges="W2TL TL2E"/>
            <route id="W_S" edges="W2TL TL2S"/>
            <route id="N_W" edges="N2TL TL2W"/>
            <route id="N_E" edges="N2TL TL2E"/>
            <route id="N_S" edges="N2TL TL2S"/>
            <route id="E_W" edges="E2TL TL2W"/>
            <route id="E_N" edges="E2TL TL2N"/>
            <route id="E_S" edges="E2TL TL2S"/>
            <route id="S_W" edges="S2TL TL2W"/>
            <route id="S_N" edges="S2TL TL2N"/>
            <route id="S_E" edges="S2TL TL2E"/>
    <vehicle id="0" type="connected_vehicle" route="E_S" depart="35.0" departLane="random" departSpeed="13.89" />
    <vehicle id="1" type="connected_vehicle" route="W_E" depart="42.0" departLane="random" departSpeed="13.89" />
    <vehicle id="2" type="connected_vehicle" route="W_E" depart="46.0" departLane="random" departSpeed="13.89" />
    <vehicle id="3" type="connected_vehicle" route="E_W" depart="67.0" departLane="random" departSpeed="13.89" />
    <vehicle id="4" type="connected_vehicle" route="E_W" depart="82.0" departLane="random" departSpeed="13.89" />
    <vehicle id="5" type="connected_vehicle" route="N_S" depart="94.0" departLane="random" departSpeed="13.89" />
    <vehicle id="6" type="connected_vehicle" route="E_W" depart="110.0" departLane="random" departSpeed="13.89" />
    <vehicle id="7" type="connected_vehicle" route="E_W" depart="112.0" departLane="random" departSpeed="13.89" />
    <vehicle id="8" type="connected_vehicle" route="S_N" depart="123.0" departLane="random" departSpeed="13.89" />
    <vehicle id="9" type="connected_vehicle" route="S_N" depart="123.0" departLane="random" departSpeed="13.89" />
    <vehicle id="10" type="connected_vehicle" route="E_W" depart="125.0" departLane="random" departSpeed="13.89" />
    <vehicle id="11" type="connected_vehicle" route="N_S" depart="129.0" departLane="random" departSpeed="13.89" />
    <vehicle id="12" type="connected_vehicle" route="E_W" depart="131.0" departLane="random" departSpeed="13.89" />
    <vehicle id="13" type="connected_vehicle" route="W_E" depart="142.0" departLane="random" departSpeed="13.89" />
    <vehicle id="14" type="connected_vehicle" route="N_E" depart="160.0" departLane="random" departSpeed="13.89" />
    <vehicle id="15" type="connected_vehicle" route="W_E" depart="172.0" departLane="random" departSpeed="13.89" />
    <vehicle id="16" type="connected_vehicle" route="W_E" depart="174.0" departLane="random" departSpeed="13.89" />
    <vehicle id="17" type="connected_vehicle" route="N_S" depart="174.0" departLane="random" departSpeed="13.89" />
    <vehicle id="18" type="connected_vehicle" route="E_N" depart="181.0" departLane="random" departSpeed="13.89" />
    <vehicle id="19" type="connected_vehicle" route="S_N" depart="192.0" departLane="random" departSpeed="13.89" />
    <vehicle id="20" type="connected_vehicle" route="N_W" depart="193.0" departLane="random" departSpeed="13.89" />
    <vehicle id="21" type="connected_vehicle" route="S_W" depart="195.0" departLane="random" departSpeed="13.89" />
    <vehicle id="22" type="connected_vehicle" route="E_W" depart="198.0" departLane="random" departSpeed="13.89" />
    <vehicle id="23" type="connected_vehicle" route="S_N" depart="199.0" departLane="random" departSpeed="13.89" />
    <vehicle id="24" type="connected_vehicle" route="N_S" depart="208.0" departLane="random" departSpeed="13.89" />
    <vehicle id="25" type="connected_vehicle" route="S_N" depart="208.0" departLane="random" departSpeed="13.89" />
    <vehicle id="26" type="connected_vehicle" route="N_S" depart="210.0" departLane="random" departSpeed="13.89" />
    <vehicle id="27" type="connected_vehicle" route="W_E" depart="216.0" departLane="random" departSpeed="13.89" />
    <vehicle id="28" type="connected_vehicle" route="S_N" depart="221.0" departLane="random" departSpeed="13.89" />
    <vehicle id="29" type="connected_vehicle" route="S_N" depart="226.0" departLane="random" departSpeed="13.89" />
    <vehicle id="30" type="connected_vehicle" route="S_N" depart="227.0" departLane="random" departSpeed="13.89" />
    <vehicle id="31" type="connected_vehicle" route="S_N" depart="230.0" departLane="random" departSpeed="13.89" />
    <vehicle id="32" type="connected_vehicle" route="S_N" depart="231.0" departLane="random" departSpeed="13.89" />
    <vehicle id="33" type="connected_vehicle" route="S_N" depart="232.0" departLane="random" departSpeed="13.89" />
    <vehicle id="34" type="connected_vehicle" route="N_S" depart="235.0" departLane="random" departSpeed="13.89" />
    <vehicle id="35" type="connected_vehicle" route="S_W" depart="236.0" departLane="random" departSpeed="13.89" />
    <vehicle id="36" type="connected_vehicle" route="W_E" depart="243.0" departLane="random" departSpeed="13.89" />
    <vehicle id="37" type="connected_vehicle" route="S_N" depart="246.0" departLane="random" departSpeed="13.89" />
    <vehicle id="38" type="connected_vehicle" route="N_S" depart="248.0" departLane="random" departSpeed="13.89" />
    <vehicle id="39" type="connected_vehicle" route="N_W" depart="250.0" departLane="random" departSpeed="13.89" />
    <vehicle id="40" type="connected_vehicle" route="N_S" depart="251.0" departLane="random" departSpeed="13.89" />
    <vehicle id="41" type="connected_vehicle" route="E_W" depart="252.0" departLane="random" departSpeed="13.89" />
    <vehicle id="42" type="connected_vehicle" route="E_W" depart="254.0" departLane="random" departSpeed="13.89" />
    <vehicle id="43" type="connected_vehicle" route="W_E" depart="257.0" departLane="random" departSpeed="13.89" />
    <vehicle id="44" type="connected_vehicle" route="E_W" depart="257.0" departLane="random" departSpeed="13.89" />
    <vehicle id="45" type="connected_vehicle" route="E_W" depart="260.0" departLane="random" departSpeed="13.89" />
    <vehicle id="46" type="connected_vehicle" route="S_N" depart="262.0" departLane="random" departSpeed="13.89" />
    <vehicle id="47" type="connected_vehicle" route="S_N" depart="264.0" departLane="random" departSpeed="13.89" />
    <vehicle id="48" type="connected_vehicle" route="E_W" depart="282.0" departLane="random" departSpeed="13.89" />
    <vehicle id="49" type="connected_vehicle" route="E_W" depart="282.0" departLane="random" departSpeed="13.89" />
    <vehicle id="50" type="connected_vehicle" route="W_E" depart="284.0" departLane="random" departSpeed="13.89" />
    <vehicle id="51" type="connected_vehicle" route="S_N" depart="284.0" departLane="random" departSpeed="13.89" />
    <vehicle id="52" type="connected_vehicle" route="E_W" depart="285.0" departLane="random" departSpeed="13.89" />
    <vehicle id="53" type="connected_vehicle" route="N_E" depart="285.0" departLane="random" departSpeed="13.89" />
    <vehicle id="54" type="connected_vehicle" route="E_W" depart="288.0" departLane="random" departSpeed="13.89" />
    <vehicle id="55" type="connected_vehicle" route="S_E" depart="290.0" departLane="random" departSpeed="13.89" />
    <vehicle id="56" type="connected_vehicle" route="N_W" depart="294.0" departLane="random" departSpeed="13.89" />
    <vehicle id="57" type="connected_vehicle" route="E_W" depart="301.0" departLane="random" departSpeed="13.89" />
    <vehicle id="58" type="connected_vehicle" route="N_S" depart="305.0" departLane="random" departSpeed="13.89" />
    <vehicle id="59" type="connected_vehicle" route="N_S" depart="309.0" departLane="random" departSpeed="13.89" />
    <vehicle id="60" type="connected_vehicle" route="N_S" depart="310.0" departLane="random" departSpeed="13.89" />
    <vehicle id="61" type="connected_vehicle" route="W_N" depart="314.0" departLane="random" departSpeed="13.89" />
    <vehicle id="62" type="connected_vehicle" route="N_S" depart="315.0" departLane="random" departSpeed="13.89" />
    <vehicle id="63" type="connected_vehicle" route="W_E" depart="315.0" departLane="random" departSpeed="13.89" />
    <vehicle id="64" type="connected_vehicle" route="S_N" depart="316.0" departLane="random" departSpeed="13.89" />
    <vehicle id="65" type="connected_vehicle" route="S_N" depart="318.0" departLane="random" departSpeed="13.89" />
    <vehicle id="66" type="connected_vehicle" route="W_S" depart="324.0" departLane="random" departSpeed="13.89" />
    <vehicle id="67" type="connected_vehicle" route="N_S" depart="329.0" departLane="random" departSpeed="13.89" />
    <vehicle id="68" type="connected_vehicle" route="E_W" depart="329.0" departLane="random" departSpeed="13.89" />
    <vehicle id="69" type="connected_vehicle" route="E_W" depart="330.0" departLane="random" departSpeed="13.89" />
    <vehicle id="70" type="connected_vehicle" route="E_W" depart="331.0" departLane="random" departSpeed="13.89" />
    <vehicle id="71" type="connected_vehicle" route="N_S" depart="336.0" departLane="random" departSpeed="13.89" />
    <vehicle id="72" type="connected_vehicle" route="S_W" depart="341.0" departLane="random" departSpeed="13.89" />
    <vehicle id="73" type="connected_vehicle" route="S_N" depart="342.0" departLane="random" departSpeed="13.89" />
    <vehicle id="74" type="connected_vehicle" route="N_S" depart="343.0" departLane="random" departSpeed="13.89" />
    <vehicle id="75" type="connected_vehicle" route="S_E" depart="345.0" departLane="random" departSpeed="13.89" />
    <vehicle id="76" type="connected_vehicle" route="N_E" depart="348.0" departLane="random" departSpeed="13.89" />
    <vehicle id="77" type="connected_vehicle" route="S_E" depart="350.0" departLane="random" departSpeed="13.89" />
    <vehicle id="78" type="connected_vehicle" route="E_W" depart="355.0" departLane="random" departSpeed="13.89" />
    <vehicle id="79" type="connected_vehicle" route="N_S" depart="357.0" departLane="random" departSpeed="13.89" />
    <vehicle id="80" type="connected_vehicle" route="N_S" depart="360.0" departLane="random" departSpeed="13.89" />
    <vehicle id="81" type="connected_vehicle" route="E_W" depart="362.0" departLane="random" departSpeed="13.89" />
    <vehicle id="82" type="connected_vehicle" route="W_E" depart="364.0" departLane="random" departSpeed="13.89" />
    <vehicle id="83" type="connected_vehicle" route="S_N" depart="368.0" departLane="random" departSpeed="13.89" />
    <vehicle id="84" type="connected_vehicle" route="N_S" depart="369.0" departLane="random" departSpeed="13.89" />
    <vehicle id="85" type="connected_vehicle" route="W_E" depart="375.0" departLane="random" departSpeed="13.89" />
    <vehicle id="86" type="connected_vehicle" route="W_E" depart="375.0" departLane="random" departSpeed="13.89" />
    <vehicle id="87" type="connected_vehicle" route="W_E" depart="375.0" departLane="random" departSpeed="13.89" />
    <vehicle id="88" type="connected_vehicle" route="N_S" depart="376.0" departLane="random" departSpeed="13.89" />
    <vehicle id="89" type="connected_vehicle" route="N_E" depart="377.0" departLane="random" departSpeed="13.89" />
    <vehicle id="90" type="connected_vehicle" route="N_S" depart="377.0" departLane="random" departSpeed="13.89" />
    <vehicle id="91" type="connected_vehicle" route="N_E" depart="382.0" departLane="random" departSpeed="13.89" />
    <vehicle id="92" type="connected_vehicle" route="E_W" depart="383.0" departLane="random" departSpeed="13.89" />
    <vehicle id="93" type="connected_vehicle" route="S_N" depart="384.0" departLane="random" departSpeed="13.89" />
    <vehicle id="94" type="connected_vehicle" route="S_N" depart="384.0" departLane="random" departSpeed="13.89" />
    <vehicle id="95" type="connected_vehicle" route="W_N" depart="385.0" departLane="random" departSpeed="13.89" />
    <vehicle id="96" type="connected_vehicle" route="W_N" depart="388.0" departLane="random" departSpeed="13.89" />
    <vehicle id="97" type="connected_vehicle" route="N_S" depart="391.0" departLane="random" departSpeed="13.89" />
    <vehicle id="98" type="connected_vehicle" route="E_W" depart="394.0" departLane="random" departSpeed="13.89" />
    <vehicle id="99" type="connected_vehicle" route="S_N" depart="402.0" departLane="random" departSpeed="13.89" />
    <vehicle id="100" type="connected_vehicle" route="W_S" depart="405.0" departLane="random" departSpeed="13.89" />
    <vehicle id="101" type="connected_vehicle" route="N_E" depart="406.0" departLane="random" departSpeed="13.89" />
    <vehicle id="102" type="connected_vehicle" route="S_E" depart="412.0" departLane="random" departSpeed="13.89" />
    <vehicle id="103" type="connected_vehicle" route="E_W" depart="412.0" departLane="random" departSpeed="13.89" />
    <vehicle id="104" type="connected_vehicle" route="E_W" depart="412.0" departLane="random" departSpeed="13.89" />
    <vehicle id="105" type="connected_vehicle" route="W_E" depart="422.0" departLane="random" departSpeed="13.89" />
    <vehicle id="106" type="connected_vehicle" route="N_W" depart="422.0" departLane="random" departSpeed="13.89" />
    <vehicle id="107" type="connected_vehicle" route="E_N" depart="423.0" departLane="random" departSpeed="13.89" />
    <vehicle id="108" type="connected_vehicle" route="S_N" depart="425.0" departLane="random" departSpeed="13.89" />
    <vehicle id="109" type="connected_vehicle" route="W_E" depart="430.0" departLane="random" departSpeed="13.89" />
    <vehicle id="110" type="connected_vehicle" route="E_W" depart="435.0" departLane="random" departSpeed="13.89" />
    <vehicle id="111" type="connected_vehicle" route="W_E" depart="436.0" departLane="random" departSpeed="13.89" />
    <vehicle id="112" type="connected_vehicle" route="N_S" depart="440.0" departLane="random" departSpeed="13.89" />
    <vehicle id="113" type="connected_vehicle" route="N_S" depart="440.0" departLane="random" departSpeed="13.89" />
    <vehicle id="114" type="connected_vehicle" route="W_E" depart="441.0" departLane="random" departSpeed="13.89" />
    <vehicle id="115" type="connected_vehicle" route="N_S" depart="442.0" departLane="random" departSpeed="13.89" />
    <vehicle id="116" type="connected_vehicle" route="N_S" depart="443.0" departLane="random" departSpeed="13.89" />
    <vehicle id="117" type="connected_vehicle" route="N_S" depart="444.0" departLane="random" departSpeed="13.89" />
    <vehicle id="118" type="connected_vehicle" route="W_N" depart="445.0" departLane="random" departSpeed="13.89" />
    <vehicle id="119" type="connected_vehicle" route="W_E" depart="447.0" departLane="random" departSpeed="13.89" />
    <vehicle id="120" type="connected_vehicle" route="W_E" depart="448.0" departLane="random" departSpeed="13.89" />
    <vehicle id="121" type="connected_vehicle" route="E_N" depart="448.0" departLane="random" departSpeed="13.89" />
    <vehicle id="122" type="connected_vehicle" route="W_E" depart="449.0" departLane="random" departSpeed="13.89" />
    <vehicle id="123" type="connected_vehicle" route="E_N" depart="449.0" departLane="random" departSpeed="13.89" />
    <vehicle id="124" type="connected_vehicle" route="S_N" depart="452.0" departLane="random" departSpeed="13.89" />
    <vehicle id="125" type="connected_vehicle" route="W_E" depart="458.0" departLane="random" departSpeed="13.89" />
    <vehicle id="126" type="connected_vehicle" route="E_W" depart="458.0" departLane="random" departSpeed="13.89" />
    <vehicle id="127" type="connected_vehicle" route="W_E" depart="458.0" departLane="random" departSpeed="13.89" />
    <vehicle id="128" type="connected_vehicle" route="S_N" depart="460.0" departLane="random" departSpeed="13.89" />
    <vehicle id="129" type="connected_vehicle" route="S_W" depart="461.0" departLane="random" departSpeed="13.89" />
    <vehicle id="130" type="connected_vehicle" route="S_N" depart="463.0" departLane="random" departSpeed="13.89" />
    <vehicle id="131" type="connected_vehicle" route="N_S" depart="463.0" departLane="random" departSpeed="13.89" />
    <vehicle id="132" type="connected_vehicle" route="N_S" depart="467.0" departLane="random" departSpeed="13.89" />
    <vehicle id="133" type="connected_vehicle" route="N_S" depart="468.0" departLane="random" departSpeed="13.89" />
    <vehicle id="134" type="connected_vehicle" route="N_S" depart="469.0" departLane="random" departSpeed="13.89" />
    <vehicle id="135" type="connected_vehicle" route="N_S" depart="471.0" departLane="random" departSpeed="13.89" />
    <vehicle id="136" type="connected_vehicle" route="W_E" depart="471.0" departLane="random" departSpeed="13.89" />
    <vehicle id="137" type="connected_vehicle" route="S_N" depart="473.0" departLane="random" departSpeed="13.89" />
    <vehicle id="138" type="connected_vehicle" route="N_E" depart="475.0" departLane="random" departSpeed="13.89" />
    <vehicle id="139" type="connected_vehicle" route="S_N" depart="478.0" departLane="random" departSpeed="13.89" />
    <vehicle id="140" type="connected_vehicle" route="S_N" depart="478.0" departLane="random" departSpeed="13.89" />
    <vehicle id="141" type="connected_vehicle" route="S_N" depart="479.0" departLane="random" departSpeed="13.89" />
    <vehicle id="142" type="connected_vehicle" route="W_E" depart="480.0" departLane="random" departSpeed="13.89" />
    <vehicle id="143" type="connected_vehicle" route="N_S" depart="481.0" departLane="random" departSpeed="13.89" />
    <vehicle id="144" type="connected_vehicle" route="W_E" depart="482.0" departLane="random" departSpeed="13.89" />
    <vehicle id="145" type="connected_vehicle" route="E_W" depart="482.0" departLane="random" departSpeed="13.89" />
    <vehicle id="146" type="connected_vehicle" route="S_N" depart="485.0" departLane="random" departSpeed="13.89" />
    <vehicle id="147" type="connected_vehicle" route="W_N" depart="488.0" departLane="random" departSpeed="13.89" />
    <vehicle id="148" type="connected_vehicle" route="W_E" depart="489.0" departLane="random" departSpeed="13.89" />
    <vehicle id="149" type="connected_vehicle" route="N_S" depart="494.0" departLane="random" departSpeed="13.89" />
    <vehicle id="150" type="connected_vehicle" route="S_N" depart="498.0" departLane="random" departSpeed="13.89" />
    <vehicle id="151" type="connected_vehicle" route="N_S" depart="500.0" departLane="random" departSpeed="13.89" />
    <vehicle id="152" type="connected_vehicle" route="N_S" depart="504.0" departLane="random" departSpeed="13.89" />
    <vehicle id="153" type="connected_vehicle" route="S_N" depart="504.0" departLane="random" departSpeed="13.89" />
    <vehicle id="154" type="connected_vehicle" route="N_S" depart="505.0" departLane="random" departSpeed="13.89" />
    <vehicle id="155" type="connected_vehicle" route="E_W" depart="508.0" departLane="random" departSpeed="13.89" />
    <vehicle id="156" type="connected_vehicle" route="N_W" depart="509.0" departLane="random" departSpeed="13.89" />
    <vehicle id="157" type="connected_vehicle" route="W_N" depart="513.0" departLane="random" departSpeed="13.89" />
    <vehicle id="158" type="connected_vehicle" route="E_W" depart="514.0" departLane="random" departSpeed="13.89" />
    <vehicle id="159" type="connected_vehicle" route="E_W" depart="518.0" departLane="random" departSpeed="13.89" />
    <vehicle id="160" type="connected_vehicle" route="N_W" depart="521.0" departLane="random" departSpeed="13.89" />
    <vehicle id="161" type="connected_vehicle" route="E_W" depart="522.0" departLane="random" departSpeed="13.89" />
    <vehicle id="162" type="connected_vehicle" route="S_E" depart="523.0" departLane="random" departSpeed="13.89" />
    <vehicle id="163" type="connected_vehicle" route="N_S" depart="523.0" departLane="random" departSpeed="13.89" />
    <vehicle id="164" type="connected_vehicle" route="W_E" depart="524.0" departLane="random" departSpeed="13.89" />
    <vehicle id="165" type="connected_vehicle" route="W_E" depart="531.0" departLane="random" departSpeed="13.89" />
    <vehicle id="166" type="connected_vehicle" route="W_E" depart="531.0" departLane="random" departSpeed="13.89" />
    <vehicle id="167" type="connected_vehicle" route="W_E" depart="532.0" departLane="random" departSpeed="13.89" />
    <vehicle id="168" type="connected_vehicle" route="S_N" depart="532.0" departLane="random" departSpeed="13.89" />
    <vehicle id="169" type="connected_vehicle" route="S_E" depart="534.0" departLane="random" departSpeed="13.89" />
    <vehicle id="170" type="connected_vehicle" route="E_N" depart="538.0" departLane="random" departSpeed="13.89" />
    <vehicle id="171" type="connected_vehicle" route="S_E" depart="539.0" departLane="random" departSpeed="13.89" />
    <vehicle id="172" type="connected_vehicle" route="S_W" depart="543.0" departLane="random" departSpeed="13.89" />
    <vehicle id="173" type="connected_vehicle" route="N_W" depart="551.0" departLane="random" departSpeed="13.89" />
    <vehicle id="174" type="connected_vehicle" route="E_N" depart="552.0" departLane="random" departSpeed="13.89" />
    <vehicle id="175" type="connected_vehicle" route="S_W" depart="556.0" departLane="random" departSpeed="13.89" />
    <vehicle id="176" type="connected_vehicle" route="N_S" depart="561.0" departLane="random" departSpeed="13.89" />
    <vehicle id="177" type="connected_vehicle" route="E_S" depart="562.0" departLane="random" departSpeed="13.89" />
    <vehicle id="178" type="connected_vehicle" route="S_E" depart="565.0" departLane="random" departSpeed="13.89" />
    <vehicle id="179" type="connected_vehicle" route="W_E" depart="566.0" departLane="random" departSpeed="13.89" />
    <vehicle id="180" type="connected_vehicle" route="W_E" depart="572.0" departLane="random" departSpeed="13.89" />
    <vehicle id="181" type="connected_vehicle" route="E_W" depart="573.0" departLane="random" departSpeed="13.89" />
    <vehicle id="182" type="connected_vehicle" route="W_E" depart="574.0" departLane="random" departSpeed="13.89" />
    <vehicle id="183" type="connected_vehicle" route="S_N" depart="575.0" departLane="random" departSpeed="13.89" />
    <vehicle id="184" type="connected_vehicle" route="E_W" depart="576.0" departLane="random" departSpeed="13.89" />
    <vehicle id="185" type="connected_vehicle" route="N_S" depart="576.0" departLane="random" departSpeed="13.89" />
    <vehicle id="186" type="connected_vehicle" route="S_N" depart="577.0" departLane="random" departSpeed="13.89" />
    <vehicle id="187" type="connected_vehicle" route="N_S" depart="577.0" departLane="random" departSpeed="13.89" />
    <vehicle id="188" type="connected_vehicle" route="E_W" depart="578.0" departLane="random" departSpeed="13.89" />
    <vehicle id="189" type="connected_vehicle" route="N_S" depart="580.0" departLane="random" departSpeed="13.89" />
    <vehicle id="190" type="connected_vehicle" route="E_W" depart="580.0" departLane="random" departSpeed="13.89" />
    <vehicle id="191" type="connected_vehicle" route="N_S" depart="583.0" departLane="random" departSpeed="13.89" />
    <vehicle id="192" type="connected_vehicle" route="E_W" depart="583.0" departLane="random" departSpeed="13.89" />
    <vehicle id="193" type="connected_vehicle" route="W_N" depart="584.0" departLane="random" departSpeed="13.89" />
    <vehicle id="194" type="connected_vehicle" route="N_S" depart="585.0" departLane="random" departSpeed="13.89" />
    <vehicle id="195" type="connected_vehicle" route="W_E" depart="585.0" departLane="random" departSpeed="13.89" />
    <vehicle id="196" type="connected_vehicle" route="W_E" depart="585.0" departLane="random" departSpeed="13.89" />
    <vehicle id="197" type="connected_vehicle" route="W_E" depart="585.0" departLane="random" departSpeed="13.89" />
    <vehicle id="198" type="connected_vehicle" route="S_N" depart="588.0" departLane="random" departSpeed="13.89" />
    <vehicle id="199" type="connected_vehicle" route="S_N" depart="588.0" departLane="random" departSpeed="13.89" />
    <vehicle id="200" type="connected_vehicle" route="S_W" depart="590.0" departLane="random" departSpeed="13.89" />
    <vehicle id="201" type="connected_vehicle" route="E_W" depart="590.0" departLane="random" departSpeed="13.89" />
    <vehicle id="202" type="connected_vehicle" route="N_S" depart="591.0" departLane="random" departSpeed="13.89" />
    <vehicle id="203" type="connected_vehicle" route="N_S" depart="591.0" departLane="random" departSpeed="13.89" />
    <vehicle id="204" type="connected_vehicle" route="N_S" depart="592.0" departLane="random" departSpeed="13.89" />
    <vehicle id="205" type="connected_vehicle" route="N_S" depart="592.0" departLane="random" departSpeed="13.89" />
    <vehicle id="206" type="connected_vehicle" route="W_E" depart="594.0" departLane="random" departSpeed="13.89" />
    <vehicle id="207" type="connected_vehicle" route="W_S" depart="595.0" departLane="random" departSpeed="13.89" />
    <vehicle id="208" type="connected_vehicle" route="S_N" depart="596.0" departLane="random" departSpeed="13.89" />
    <vehicle id="209" type="connected_vehicle" route="E_S" depart="596.0" departLane="random" departSpeed="13.89" />
    <vehicle id="210" type="connected_vehicle" route="E_W" depart="598.0" departLane="random" departSpeed="13.89" />
    <vehicle id="211" type="connected_vehicle" route="E_S" depart="599.0" departLane="random" departSpeed="13.89" />
    <vehicle id="212" type="connected_vehicle" route="E_W" depart="599.0" departLane="random" departSpeed="13.89" />
    <vehicle id="213" type="connected_vehicle" route="N_S" depart="600.0" departLane="random" departSpeed="13.89" />
    <vehicle id="214" type="connected_vehicle" route="N_E" depart="602.0" departLane="random" departSpeed="13.89" />
    <vehicle id="215" type="connected_vehicle" route="N_S" depart="604.0" departLane="random" departSpeed="13.89" />
    <vehicle id="216" type="connected_vehicle" route="S_N" depart="605.0" departLane="random" departSpeed="13.89" />
    <vehicle id="217" type="connected_vehicle" route="W_E" depart="606.0" departLane="random" departSpeed="13.89" />
    <vehicle id="218" type="connected_vehicle" route="E_W" depart="606.0" departLane="random" departSpeed="13.89" />
    <vehicle id="219" type="connected_vehicle" route="N_S" depart="606.0" departLane="random" departSpeed="13.89" />
    <vehicle id="220" type="connected_vehicle" route="N_S" depart="607.0" departLane="random" departSpeed="13.89" />
    <vehicle id="221" type="connected_vehicle" route="N_S" depart="607.0" departLane="random" departSpeed="13.89" />
    <vehicle id="222" type="connected_vehicle" route="E_S" depart="609.0" departLane="random" departSpeed="13.89" />
    <vehicle id="223" type="connected_vehicle" route="N_W" depart="611.0" departLane="random" departSpeed="13.89" />
    <vehicle id="224" type="connected_vehicle" route="E_W" depart="613.0" departLane="random" departSpeed="13.89" />
    <vehicle id="225" type="connected_vehicle" route="W_E" depart="614.0" departLane="random" departSpeed="13.89" />
    <vehicle id="226" type="connected_vehicle" route="N_S" depart="614.0" departLane="random" departSpeed="13.89" />
    <vehicle id="227" type="connected_vehicle" route="N_S" depart="616.0" departLane="random" departSpeed="13.89" />
    <vehicle id="228" type="connected_vehicle" route="E_W" depart="616.0" departLane="random" departSpeed="13.89" />
    <vehicle id="229" type="connected_vehicle" route="N_S" depart="616.0" departLane="random" departSpeed="13.89" />
    <vehicle id="230" type="connected_vehicle" route="E_W" depart="619.0" departLane="random" departSpeed="13.89" />
    <vehicle id="231" type="connected_vehicle" route="E_W" depart="621.0" departLane="random" departSpeed="13.89" />
    <vehicle id="232" type="connected_vehicle" route="E_W" depart="621.0" departLane="random" departSpeed="13.89" />
    <vehicle id="233" type="connected_vehicle" route="E_W" depart="621.0" departLane="random" departSpeed="13.89" />
    <vehicle id="234" type="connected_vehicle" route="W_N" depart="622.0" departLane="random" departSpeed="13.89" />
    <vehicle id="235" type="connected_vehicle" route="S_E" depart="623.0" departLane="random" departSpeed="13.89" />
    <vehicle id="236" type="connected_vehicle" route="W_E" depart="626.0" departLane="random" departSpeed="13.89" />
    <vehicle id="237" type="connected_vehicle" route="W_E" depart="631.0" departLane="random" departSpeed="13.89" />
    <vehicle id="238" type="connected_vehicle" route="E_W" depart="631.0" departLane="random" departSpeed="13.89" />
    <vehicle id="239" type="connected_vehicle" route="S_N" depart="631.0" departLane="random" departSpeed="13.89" />
    <vehicle id="240" type="connected_vehicle" route="E_W" depart="631.0" departLane="random" departSpeed="13.89" />
    <vehicle id="241" type="connected_vehicle" route="W_S" depart="632.0" departLane="random" departSpeed="13.89" />
    <vehicle id="242" type="connected_vehicle" route="S_N" depart="632.0" departLane="random" departSpeed="13.89" />
    <vehicle id="243" type="connected_vehicle" route="N_S" depart="633.0" departLane="random" departSpeed="13.89" />
    <vehicle id="244" type="connected_vehicle" route="W_S" depart="634.0" departLane="random" departSpeed="13.89" />
    <vehicle id="245" type="connected_vehicle" route="N_S" depart="636.0" departLane="random" departSpeed="13.89" />
    <vehicle id="246" type="connected_vehicle" route="N_S" depart="636.0" departLane="random" departSpeed="13.89" />
    <vehicle id="247" type="connected_vehicle" route="S_E" depart="636.0" departLane="random" departSpeed="13.89" />
    <vehicle id="248" type="connected_vehicle" route="E_W" depart="636.0" departLane="random" departSpeed="13.89" />
    <vehicle id="249" type="connected_vehicle" route="S_N" depart="636.0" departLane="random" departSpeed="13.89" />