<routes>
            <vType accel="1.0" decel="4.5" id="regular_vehicle" length="5.0" minGap="2.5" maxSpeed="25" sigma="0.5" color ="red" />
            <vType accel="1.0" decel="4.5" id="connected_vehicle" length="5.0" minGap="2.5" maxSpeed="25" sigma="0.5" color ="blue" />

            <route id="W_N" edges="W2TL TL2N"/>
            <route id="W_E" edges="W2TL TL2E"/>
            <route id="W_S" edges="W2TL TL2S"/>
            <route id="N_W" edges="N2TL TL2W"/>
            <route id="N_E" edges="N2TL TL2E"/>
            <route id="N_S" edges="N2TL TL2S"/>
            <route id="E_W" edges="E2TL TL2W"/>
            <route id="E_N" edges="E2TL TL2N"/>
            <route id="E_S" edges="E2TL TL2S"/>
            <route id="S_W" edges="S2TL TL2W"/>
            <route id="S_N" edges="S2TL TL2N"/>
            <route id="S_E" edges="S2TL TL2E"/>
    <vehicle id="0" type="connected_vehicle" route="W_E" depart="0.0" departLane="random" departSpeed="13.89" />
    <vehicle id="1" type="connected_vehicle" route="E_W" depart="0.0" departLane="random" departSpeed="13.89" />
    <vehicle id="2" type="connected_vehicle" route="N_E" depart="2.0" departLane="random" departSpeed="13.89" />
    <vehicle id="3" type="connected_vehicle" route="S_N" depart="3.0" departLane="random" departSpeed="13.89" />
    <vehicle id="4" type="connected_vehicle" route="W_N" depart="4.0" departLane="random" departSpeed="13.89" />
    <vehicle id="5" type="connected_vehicle" route="W_E" depart="5.0" departLane="random" departSpeed="13.89" />
    <vehicle id="6" type="connected_vehicle" route="W_E" depart="7.0" departLane="random" departSpeed="13.89" />
    <vehicle id="7" type="connected_vehicle" route="N_S" depart="9.0" departLane="random" departSpeed="13.89" />
    <vehicle id="8" type="connected_vehicle" route="W_E" depart="9.0" departLane="random" departSpeed="13.89" />
    <vehicle id="9" type="connected_vehicle" route="N_W" depart="10.0" departLane="random" departSpeed="13.89" />
    <vehicle id="10" type="connected_vehicle" route="E_W" depart="11.0" departLane="random" departSpeed="13.89" />
    <vehicle id="11" type="connected_vehicle" route="E_W" depart="11.0" departLane="random" departSpeed="13.89" />
    <vehicle id="12" type="connected_vehicle" route="W_E" depart="11.0" departLane="random" departSpeed="13.89" />
    <vehicle id="13" type="connected_vehicle" route="N_S" depart="11.0" departLane="random" departSpeed="13.89" />
    <vehicle id="14" type="connected_vehicle" route="W_E" depart="15.0" departLane="random" departSpeed="13.89" />
    <vehicle id="15" type="connected_vehicle" route="S_N" depart="15.0" departLane="random" departSpeed="13.89" />
    <vehicle id="16" type="connected_vehicle" route="W_E" depart="19.0" departLane="random" departSpeed="13.89" />
    <vehicle id="17" type="connected_vehicle" route="W_E" depart="20.0" departLane="random" departSpeed="13.89" />
    <vehicle id="18" type="connected_vehicle" route="W_N" depart="21.0" departLane="random" departSpeed="13.89" />
    <vehicle id="19" type="connected_vehicle" route="E_W" depart="21.0" departLane="random" departSpeed="13.89" />
    <vehicle id="20" type="connected_vehicle" route="N_S" depart="24.0" departLane="random" departSpeed="13.89" />
    <vehicle id="21" type="connected_vehicle" route="E_S" depart="25.0" departLane="random" departSpeed="13.89" />
    <vehicle id="22" type="connected_vehicle" route="W_E" depart="25.0" departLane="random" departSpeed="13.89" />
    <vehicle id="23" type="connected_vehicle" route="W_N" depart="26.0" departLane="random" departSpeed="13.89" />
    <vehicle id="24" type="connected_vehicle" route="E_W" depart="26.0" departLane="random" departSpeed="13.89" />
    <vehicle id="25" type="connected_vehicle" route="W_E" depart="27.0" departLane="random" departSpeed="13.89" />
    <vehicle id="26" type="connected_vehicle" route="N_S" depart="28.0" departLane="random" departSpeed="13.89" />
    <vehicle id="27" type="connected_vehicle" route="N_E" depart="28.0" departLane="random" departSpeed="13.89" />
    <vehicle id="28" type="connected_vehicle" route="W_E" depart="29.0" departLane="random" departSpeed="13.89" />
    <vehicle id="29" type="connected_vehicle" route="E_W" depart="30.0" departLane="random" departSpeed="13.89" />
    <vehicle id="30" type="connected_vehicle" route="S_N" depart="30.0" departLane="random" departSpeed="13.89" />
    <vehicle id="31" type="connected_vehicle" route="E_W" depart="32.0" departLane="random" departSpeed="13.89" />
    <vehicle id="32" type="connected_vehicle" route="S_N" depart="33.0" departLane="random" departSpeed="13.89" />
    <vehicle id="33" type="connected_vehicle" route="E_W" depart="34.0" departLane="random" departSpeed="13.89" />
    <vehicle id="34" type="connected_vehicle" route="N_E" depart="35.0" departLane="random" departSpeed="13.89" />
    <vehicle id="35" type="connected_vehicle" route="S_N" depart="39.0" departLane="random" departSpeed="13.89" />
    <vehicle id="36" type="connected_vehicle" route="E_W" depart="41.0" departLane="random" departSpeed="13.89" />
    <vehicle id="37" type="connected_vehicle" route="S_N" depart="42.0" departLane="random" departSpeed="13.89" />
    <vehicle id="38" type="connected_vehicle" route="N_S" depart="43.0" departLane="random" departSpeed="13.89" />
    <vehicle id="39" type="connected_vehicle" route="E_W" depart="44.0" departLane="random" departSpeed="13.89" />
    <vehicle id="40" type="connected_vehicle" route="S_E" depart="44.0" departLane="random" departSpeed="13.89" />
    <vehicle id="41" type="connected_vehicle" route="S_W" depart="44.0" departLane="random" departSpeed="13.89" />
    <vehicle id="42" type="connected_vehicle" route="W_E" depart="49.0" departLane="random" departSpeed="13.89" />
    <vehicle id="43" type="connected_vehicle" route="E_W" depart="50.0" departLane="random" departSpeed="13.89" />
    <vehicle id="44" type="connected_vehicle" route="S_N" depart="50.0" departLane="random" departSpeed="13.89" />
    <vehicle id="45" type="connected_vehicle" route="E_W" depart="50.0" departLane="random" departSpeed="13.89" />
    <vehicle id="46" type="connected_vehicle" route="W_E" depart="53.0" departLane="random" departSpeed="13.89" />
    <vehicle id="47" type="connected_vehicle" route="E_W" depart="54.0" departLane="random" departSpeed="13.89" />
    <vehicle id="48" type="connected_vehicle" route="N_S" depart="55.0" departLane="random" departSpeed="13.89" />
    <vehicle id="49" type="connected_vehicle" route="E_W" depart="57.0" departLane="random" departSpeed="13.89" />
    <vehicle id="50" type="connected_vehicle" route="E_W" depart="58.0" departLane="random" departSpeed="13.89" />
    <vehicle id="51" type="connected_vehicle" route="S_N" depart="61.0" departLane="random" departSpeed="13.89" />
    <vehicle id="52" type="connected_vehicle" route="N_S" depart="61.0" departLane="random" departSpeed="13.89" />
    <vehicle id="53" type="connected_vehicle" route="W_E" depart="62.0" departLane="random" departSpeed="13.89" />
    <vehicle id="54" type="connected_vehicle" route="W_E" depart="63.0" departLane="random" departSpeed="13.89" />
    <vehicle id="55" type="connected_vehicle" route="E_W" depart="64.0" departLane="random" departSpeed="13.89" />
    <vehicle id="56" type="connected_vehicle" route="N_S" depart="65.0" departLane="random" departSpeed="13.89" />
    <vehicle id="57" type="connected_vehicle" route="W_S" depart="66.0" departLane="random" departSpeed="13.89" />
    <vehicle id="58" type="connected_vehicle" route="S_N" depart="66.0" departLane="random" departSpeed="13.89" />
    <vehicle id="59" type="connected_vehicle" route="N_E" depart="71.0" departLane="random" departSpeed="13.89" />
    <vehicle id="60" type="connected_vehicle" route="N_S" depart="72.0" departLane="random" departSpeed="13.89" />
    <vehicle id="61" type="connected_vehicle" route="W_S" depart="73.0" departLane="random" departSpeed="13.89" />
    <vehicle id="62" type="connected_vehicle" route="S_E" depart="74.0" departLane="random" departSpeed="13.89" />
    <vehicle id="63" type="connected_vehicle" route="E_W" depart="74.0" departLane="random" departSpeed="13.89" />
    <vehicle id="64" type="connected_vehicle" route="E_W" depart="74.0" departLane="random" departSpeed="13.89" />
    <vehicle id="65" type="connected_vehicle" route="E_W" depart="74.0" departLane="random" departSpeed="13.89" />
    <vehicle id="66" type="connected_vehicle" route="N_S" depart="74.0" departLane="random" departSpeed="13.89" />
    <vehicle id="67" type="connected_vehicle" route="S_E" depart="75.0" departLane="random" departSpeed="13.89" />
    <vehicle id="68" type="connected_vehicle" route="E_S" depart="76.0" departLane="random" departSpeed="13.89" />
    <vehicle id="69" type="connected_vehicle" route="S_W" depart="77.0" departLane="random" departSpeed="13.89" />
    <vehicle id="70" type="connected_vehicle" route="S_N" depart="77.0" departLane="random" departSpeed="13.89" />
    <vehicle id="71" type="connected_vehicle" route="S_N" depart="77.0" departLane="random" departSpeed="13.89" />
    <vehicle id="72" type="connected_vehicle" route="N_S" depart="79.0" departLane="random" departSpeed="13.89" />
    <vehicle id="73" type="connected_vehicle" route="N_S" depart="81.0" departLane="random" departSpeed="13.89" />
    <vehicle id="74" type="connected_vehicle" route="W_E" depart="82.0" departLane="random" departSpeed="13.89" />
    <vehicle id="75" type="connected_vehicle" route="W_N" depart="83.0" departLane="random" departSpeed="13.89" />
    <vehicle id="76" type="connected_vehicle" route="N_S" depart="83.0" departLane="random" departSpeed="13.89" />
    <vehicle id="77" type="connected_vehicle" route="S_E" depart="84.0" departLane="random" departSpeed="13.89" />
    <vehicle id="78" type="connected_vehicle" route="W_E" depart="85.0" departLane="random" departSpeed="13.89" />
    <vehicle id="79" type="connected_vehicle" route="W_E" depart="85.0" departLane="random" departSpeed="13.89" />
    <vehicle id="80" type="connected_vehicle" route="W_E" depart="85.0" departLane="random" departSpeed="13.89" />
    <vehicle id="81" type="connected_vehicle" route="N_E" depart="88.0" departLane="random" departSpeed="13.89" />
    <vehicle id="82" type="connected_vehicle" route="N_S" depart="88.0" departLane="random" departSpeed="13.89" />
    <vehicle id="83" type="connected_vehicle" route="N_E" depart="88.0" departLane="random" departSpeed="13.89" />
    <vehicle id="84" type="connected_vehicle" route="E_W" depart="89.0" departLane="random" departSpeed="13.89" />
    <vehicle id="85" type="connected_vehicle" route="W_E" depart="91.0" departLane="random" departSpeed="13.89" />
    <vehicle id="86" type="connected_vehicle" route="W_E" depart="91.0" departLane="random" departSpeed="13.89" />
    <vehicle id="87" type="connected_vehicle" route="W_S" depart="92.0" departLane="random" departSpeed="13.89" />
    <vehicle id="88" type="connected_vehicle" route="N_S" depart="92.0" departLane="random" departSpeed="13.89" />
    <vehicle id="89" type="connected_vehicle" route="W_E" depart="92.0" departLane="random" departSpeed="13.89" />
    <vehicle id="90" type="connected_vehicle" route="E_S" depart="93.0" departLane="random" departSpeed="13.89" />
    <vehicle id="91" type="connected_vehicle" route="N_S" depart="94.0" departLane="random" departSpeed="13.89" />
    <vehicle id="92" type="connected_vehicle" route="E_W" depart="96.0" departLane="random" departSpeed="13.89" />
    <vehicle id="93" type="connected_vehicle" route="N_S" depart="98.0" departLane="random" departSpeed="13.89" />
    <vehicle id="94" type="connected_vehicle" route="W_E" depart="98.0" departLane="random" departSpeed="13.89" />
    <vehicle id="95" type="connected_vehicle" route="S_E" depart="100.0" departLane="random" departSpeed="13.89" />
    <vehicle id="96" type="connected_vehicle" route="S_W" depart="101.0" departLane="random" departSpeed="13.89" />
    <vehicle id="97" type="connected_vehicle" route="E_W" depart="102.0" departLane="random" departSpeed="13.89" />
    <vehicle id="98" type="connected_vehicle" route="S_N" depart="103.0" departLane="random" departSpeed="13.89" />
    <vehicle id="99" type="connected_vehicle" route="S_N" depart="103.0" departLane="random" departSpeed="13.89" />
    <vehicle id="100" type="connected_vehicle" route="S_N" depart="104.0" departLane="random" departSpeed="13.89" />
    <vehicle id="101" type="connected_vehicle" route="E_S" depart="104.0" departLane="random" departSpeed="13.89" />
    <vehicle id="102" type="connected_vehicle" route="N_W" depart="105.0" departLane="random" departSpeed="13.89" />
    <vehicle id="103" type="connected_vehicle" route="N_S" depart="106.0" departLane="random" departSpeed="13.89" />
    <vehicle id="104" type="connected_vehicle" route="E_N" depart="106.0" departLane="random" departSpeed="13.89" />
    <vehicle id="105" type="connected_vehicle" route="S_N" depart="109.0" departLane="random" departSpeed="13.89" />
    <vehicle id="106" type="connected_vehicle" route="N_S" depart="109.0" departLane="random" departSpeed="13.89" />
    <vehicle id="107" type="connected_vehicle" route="E_W" depart="111.0" departLane="random" departSpeed="13.89" />
    <vehicle id="108" type="connected_vehicle" route="W_N" depart="112.0" departLane="random" departSpeed="13.89" />
    <vehicle id="109" type="connected_vehicle" route="N_S" depart="112.0" departLane="random" departSpeed="13.89" />
    <vehicle id="110" type="connected_vehicle" route="W_N" depart="113.0" departLane="random" departSpeed="13.89" />
    <vehicle id="111" type="connected_vehicle" route="E_W" depart="115.0" departLane="random" departSpeed="13.89" />
    <vehicle id="112" type="connected_vehicle" route="S_E" depart="115.0" departLane="random" departSpeed="13.89" />
    <vehicle id="113" type="connected_vehicle" route="W_E" depart="119.0" departLane="random" departSpeed="13.89" />
    <vehicle id="114" type="connected_vehicle" route="S_N" depart="124.0" departLane="random" departSpeed="13.89" />
    <vehicle id="115" type="connected_vehicle" route="W_E" depart="125.0" departLane="random" departSpeed="13.89" />
    <vehicle id="116" type="connected_vehicle" route="W_E" depart="125.0" departLane="random" departSpeed="13.89" />
    <vehicle id="117" type="connected_vehicle" route="N_S" depart="128.0" departLane="random" departSpeed="13.89" />
    <vehicle id="118" type="connected_vehicle" route="W_E" depart="129.0" departLane="random" departSpeed="13.89" />
    <vehicle id="119" type="connected_vehicle" route="W_E" depart="131.0" departLane="random" departSpeed="13.89" />
    <vehicle id="120" type="connected_vehicle" route="N_W" depart="131.0" departLane="random" departSpeed="13.89" />
    <vehicle id="121" type="connected_vehicle" route="E_W" depart="132.0" departLane="random" departSpeed="13.89" />
    <vehicle id="122" type="connected_vehicle" route="W_N" depart="133.0" departLane="random" departSpeed="13.89" />
    <vehicle id="123" type="connected_vehicle" route="S_N" depart="133.0" departLane="random" departSpeed="13.89" />
    <vehicle id="124" type="connected_vehicle" route="E_W" depart="133.0" departLane="random" departSpeed="13.89" />
    <vehicle id="125" type="connected_vehicle" route="W_S" depart="133.0" departLane="random" departSpeed="13.89" />
    <vehicle id="126" type="connected_vehicle" route="E_W" depart="134.0" departLane="random" departSpeed="13.89" />
    <vehicle id="127" type="connected_vehicle" route="W_S" depart="135.0" departLane="random" departSpeed="13.89" />
    <vehicle id="128" type="connected_vehicle" route="E_W" depart="136.0" departLane="random" departSpeed="13.89" />
    <vehicle id="129" type="connected_vehicle" route="W_E" depart="136.0" departLane="random" departSpeed="13.89" />
    <vehicle id="130" type="connected_vehicle" route="W_E" depart="136.0" departLane="random" departSpeed="13.89" />
    <vehicle id="131" type="connected_vehicle" route="W_N" depart="136.0" departLane="random" departSpeed="13.89" />
    <vehicle id="132" type="connected_vehicle" route="W_S" depart="139.0" departLane="random" departSpeed="13.89" />
    <vehicle id="133" type="connected_vehicle" route="N_W" depart="139.0" departLane="random" departSpeed="13.89" />
    <vehicle id="134" type="connected_vehicle" route="E_N" depart="139.0" departLane="random" departSpeed="13.89" />
    <vehicle id="135" type="connected_vehicle" route="N_W" depart="142.0" departLane="random" departSpeed="13.89" />
    <vehicle id="136" type="connected_vehicle" route="E_W" depart="143.0" departLane="random" departSpeed="13.89" />
    <vehicle id="137" type="connected_vehicle" route="E_W" depart="146.0" departLane="random" departSpeed="13.89" />
    <vehicle id="138" type="connected_vehicle" route="S_W" depart="147.0" departLane="random" departSpeed="13.89" />
    <vehicle id="139" type="connected_vehicle" route="S_N" depart="149.0" departLane="random" departSpeed="13.89" />
    <vehicle id="140" type="connected_vehicle" route="S_W" depart="149.0" departLane="random" departSpeed="13.89" />
    <vehicle id="141" type="connected_vehicle" route="N_W" depart="150.0" departLane="random" departSpeed="13.89" />
    <vehicle id="142" type="connected_vehicle" route="S_N" depart="150.0" departLane="random" departSpeed="13.89" />
    <vehicle id="143" type="connected_vehicle" route="N_S" depart="151.0" departLane="random" departSpeed="13.89" />
    <vehicle id="144" type="connected_vehicle" route="W_E" depart="152.0" departLane="random" departSpeed="13.89" />
    <vehicle id="145" type="connected_vehicle" route="N_S" depart="153.0" departLane="random" departSpeed="13.89" />
    <vehicle id="146" type="connected_vehicle" route="S_E" depart="153.0" departLane="random" departSpeed="13.89" />
    <vehicle id="147" type="connected_vehicle" route="S_N" depart="154.0" departLane="random" departSpeed="13.89" />
    <vehicle id="148" type="connected_vehicle" route="E_W" depart="156.0" departLane="random" departSpeed="13.89" />
    <vehicle id="149" type="connected_vehicle" route="N_E" depart="157.0" departLane="random" departSpeed="13.89" />
    <vehicle id="150" type="connected_vehicle" route="W_E" depart="158.0" departLane="random" departSpeed="13.89" />
    <vehicle id="151" type="connected_vehicle" route="S_E" depart="158.0" departLane="random" departSpeed="13.89" />
    <vehicle id="152" type="connected_vehicle" route="S_N" depart="159.0" departLane="random" departSpeed="13.89" />
    <vehicle id="153" type="connected_vehicle" route="N_S" depart="159.0" departLane="random" departSpeed="13.89" />
    <vehicle id="154" type="connected_vehicle" route="S_N" depart="160.0" departLane="random" departSpeed="13.89" />
    <vehicle id="155" type="connected_vehicle" route="W_E" depart="160.0" departLane="random" departSpeed="13.89" />
    <vehicle id="156" type="connected_vehicle" route="S_E" depart="160.0" departLane="random" departSpeed="13.89" />
    <vehicle id="157" type="connected_vehicle" route="N_E" depart="160.0" departLane="random" departSpeed="13.89" />
    <vehicle id="158" type="connected_vehicle" route="N_S" depart="161.0" departLane="random" departSpeed="13.89" />
    <vehicle id="159" type="connected_vehicle" route="S_N" depart="162.0" departLane="random" departSpeed="13.89" />
    <vehicle id="160" type="connected_vehicle" route="S_N" depart="163.0" departLane="random" departSpeed="13.89" />
    <vehicle id="161" type="connected_vehicle" route="W_E" depart="163.0" departLane="random" departSpeed="13.89" />
    <vehicle id="162" type="connected_vehicle" route="W_E" depart="164.0" departLane="random" departSpeed="13.89" />
    <vehicle id="163" type="connected_vehicle" route="N_W" depart="164.0" departLane="random" departSpeed="13.89" />
    <vehicle id="164" type="connected_vehicle" route="N_S" depart="165.0" departLane="random" departSpeed="13.89" />
    <vehicle id="165" type="connected_vehicle" route="S_N" depart="166.0" departLane="random" departSpeed="13.89" />
    <vehicle id="166" type="connected_vehicle" route="N_W" depart="169.0" departLane="random" departSpeed="13.89" />
    <vehicle id="167" type="connected_vehicle" route="S_N" depart="171.0" departLane="random" departSpeed="13.89" />
    <vehicle id="168" type="connected_vehicle" route="N_W" depart="172.0" departLane="random" departSpeed="13.89" />
    <vehicle id="169" type="connected_vehicle" route="W_S" depart="175.0" departLane="random" departSpeed="13.89" />
    <vehicle id="170" type="connected_vehicle" route="E_S" depart="176.0" departLane="random" departSpeed="13.89" />
    <vehicle id="171" type="connected_vehicle" route="S_N" depart="177.0" departLane="random" departSpeed="13.89" />
    <vehicle id="172" type="connected_vehicle" route="E_W" depart="177.0" departLane="random" departSpeed="13.89" />
    <vehicle id="173" type="connected_vehicle" route="S_E" depart="178.0" departLane="random" departSpeed="13.89" />
    <vehicle id="174" type="connected_vehicle" route="E_W" depart="179.0" departLane="random" departSpeed="13.89" />
    <vehicle id="175" type="connected_vehicle" route="W_S" depart="180.0" departLane="random" departSpeed="13.89" />
    <vehicle id="176" type="connected_vehicle" route="N_S" depart="180.0" departLane="random" departSpeed="13.89" />
    <vehicle id="177" type="connected_vehicle" route="E_W" depart="181.0" departLane="random" departSpeed="13.89" />
    <vehicle id="178" type="connected_vehicle" route="W_E" depart="184.0" departLane="random" departSpeed="13.89" />
    <vehicle id="179" type="connected_vehicle" route="S_N" depart="185.0" departLane="random" departSpeed="13.89" />
    <vehicle id="180" type="connected_vehicle" route="E_N" depart="189.0" departLane="random" departSpeed="13.89" />
    <vehicle id="181" type="connected_vehicle" route="E_W" depart="190.0" departLane="random" departSpeed="13.89" />
    <vehicle id="182" type="connected_vehicle" route="N_S" depart="190.0" departLane="random" departSpeed="13.89" />
    <vehicle id="183" type="connected_vehicle" route="E_N" depart="190.0" departLane="random" departSpeed="13.89" />
    <vehicle id="184" type="connected_vehicle" route="E_W" depart="191.0" departLane="random" departSpeed="13.89" />
    <vehicle id="185" type="connected_vehicle" route="E_S" depart="192.0" departLane="random" departSpeed="13.89" />
    <vehicle id="186" type="connected_vehicle" route="N_E" depart="193.0" departLane="random" departSpeed="13.89" />
    <vehicle id="187" type="connected_vehicle" route="E_W" depart="195.0" departLane="random" departSpeed="13.89" />
    <vehicle id="188" type="connected_vehicle" route="S_N" depart="198.0" departLane="random" departSpeed="13.89" />
    <vehicle id="189" type="connected_vehicle" route="N_S" depart="198.0" departLane="random" departSpeed="13.89" />
    <vehicle id="190" type="connected_vehicle" route="N_S" depart="200.0" departLane="random" departSpeed="13.89" />
    <vehicle id="191" type="connected_vehicle" route="S_W" depart="200.0" departLane="random" departSpeed="13.89" />
    <vehicle id="192" type="connected_vehicle" route="W_E" depart="201.0" departLane="random" departSpeed="13.89" />
    <vehicle id="193" type="connected_vehicle" route="N_S" depart="202.0" departLane="random" departSpeed="13.89" />
    <vehicle id="194" type="connected_vehicle" route="W_S" depart="203.0" departLane="random" departSpeed="13.89" />
    <vehicle id="195" type="connected_vehicle" route="S_N" depart="205.0" departLane="random" departSpeed="13.89" />
    <vehicle id="196" type="connected_vehicle" route="S_E" depart="205.0" departLane="random" departSpeed="13.89" />
    <vehicle id="197" type="connected_vehicle" route="E_W" depart="205.0" departLane="random" departSpeed="13.89" />
    <vehicle id="198" type="connected_vehicle" route="S_E" depart="206.0" departLane="random" departSpeed="13.89" />
    <vehicle id="199" type="connected_vehicle" route="N_S" depart="208.0" departLane="random" departSpeed="13.89" />
    <vehicle id="200" type="connected_vehicle" route="N_S" depart="209.0" departLane="random" departSpeed="13.89" />
    <vehicle id="201" type="connected_vehicle" route="N_S" depart="210.0" departLane="random" departSpeed="13.89" />
    <vehicle id="202" type="connected_vehicle" route="S_N" depart="211.0" departLane="random" departSpeed="13.89" />
    <vehicle id="203" type="connected_vehicle" route="N_S" depart="211.0" departLane="random" departSpeed="13.89" />
    <vehicle id="204" type="connected_vehicle" route="S_N" depart="212.0" departLane="random" departSpeed="13.89" />
    <vehicle id="205" type="connected_vehicle" route="E_W" depart="212.0" departLane="random" departSpeed="13.89" />
    <vehicle id="206" type="connected_vehicle" route="N_S" depart="214.0" departLane="random" departSpeed="13.89" />
    <vehicle id="207" type="connected_vehicle" route="S_N" depart="215.0" departLane="random" departSpeed="13.89" />
    <vehicle id="208" type="connected_vehicle" route="S_N" depart="216.0" departLane="random" departSpeed="13.89" />
    <vehicle id="209" type="connected_vehicle" route="E_W" depart="217.0" departLane="random" departSpeed="13.89" />
    <vehicle id="210" type="connected_vehicle" route="W_N" depart="218.0" departLane="random" departSpeed="13.89" />
    <vehicle id="211" type="connected_vehicle" route="N_S" depart="219.0" departLane="random" departSpeed="13.89" />
    <vehicle id="212" type="connected_vehicle" route="W_E" depart="219.0" departLane="random" departSpeed="13.89" />
    <vehicle id="213" type="connected_vehicle" route="N_S" depart="221.0" departLane="random" departSpeed="13.89" />
    <vehicle id="214" type="connected_vehicle" route="N_S" depart="222.0" departLane="random" departSpeed="13.89" />
    <vehicle id="215" type="connected_vehicle" route="N_S" depart="223.0" departLane="random" departSpeed="13.89" />
    <vehicle id="216" type="connected_vehicle" route="N_S" depart="224.0" departLane="random" departSpeed="13.89" />
    <vehicle id="217" type="connected_vehicle" route="N_S" depart="226.0" departLane="random" departSpeed="13.89" />
    <vehicle id="218" type="connected_vehicle" route="W_E" depart="229.0" departLane="random" departSpeed="13.89" />
    <vehicle id="219" type="connected_vehicle" route="E_W" depart="229.0" departLane="random" departSpeed="13.89" />
    <vehicle id="220" type="connected_vehicle" route="W_E" depart="229.0" departLane="random" departSpeed="13.89" />
    <vehicle id="221" type="connected_vehicle" route="W_N" depart="229.0" departLane="random" departSpeed="13.89" />
    <vehicle id="222" type="connected_vehicle" route="S_N" depart="229.0" departLane="random" departSpeed="13.89" />
    <vehicle id="223" type="connected_vehicle" route="W_E" depart="230.0" departLane="random" departSpeed="13.89" />
    <vehicle id="224" type="connected_vehicle" route="S_N" depart="231.0" departLane="random" departSpeed="13.89" />
    <vehicle id="225" type="connected_vehicle" route="S_N" depart="231.0" departLane="random" departSpeed="13.89" />
    <vehicle id="226" type="connected_vehicle" route="E_N" depart="231.0" departLane="random" departSpeed="13.89" />
    <vehicle id="227" type="connected_vehicle" route="N_E" depart="232.0" departLane="random" departSpeed="13.89" />
    <vehicle id="228" type="connected_vehicle" route="S_N" depart="232.0" departLane="random" departSpeed="13.89" />
    <vehicle id="229" type="connected_vehicle" route="S_N" depart="234.0" departLane="random" departSpeed="13.89" />
    <vehicle id="230" type="connected_vehicle" route="N_S" depart="235.0" departLane="random" departSpeed="13.89" />
    <vehicle id="231" type="connected_vehicle" route="N_W" depart="237.0" departLane="random" departSpeed="13.89" />
    <vehicle id="232" type="connected_vehicle" route="E_W" depart="237.0" departLane="random" departSpeed="13.89" />
    <vehicle id="233" type="connected_vehicle" route="N_S" depart="239.0" departLane="random" departSpeed="13.89" />
    <vehicle id="234" type="connected_vehicle" route="N_S" depart="240.0" departLane="random" departSpeed="13.89" />
    <vehicle id="235" type="connected_vehicle" route="N_W" depart="240.0" departLane="random" departSpeed="13.89" />
    <vehicle id="236" type="connected_vehicle" route="S_N" depart="241.0" departLane="random" departSpeed="13.89" />
    <vehicle id="237" type="connected_vehicle" route="W_E" depart="241.0" departLane="random" departSpeed="13.89" />
    <vehicle id="238" type="connected_vehicle" route="E_W" depart="241.0" departLane="random" departSpeed="13.89" />
    <vehicle id="239" type="connected_vehicle" route="S_N" depart="243.0" departLane="random" departSpeed="13.89" />
    <vehicle id="240" type="connected_vehicle" route="S_N" depart="246.0" departLane="random" departSpeed="13.89" />
    <vehicle id="241" type="connected_vehicle" route="W_E" depart="248.0" departLane="random" departSpeed="13.89" />
    <vehicle id="242" type="connected_vehicle" route="E_W" depart="248.0" departLane="random" departSpeed="13.89" />
    <vehicle id="243" type="connected_vehicle" route="W_N" depart="250.0" departLane="random" departSpeed="13.89" />
    <vehicle id="244" type="connected_vehicle" route="S_E" depart="251.0" departLane="random" departSpeed="13.89" />
    <vehicle id="245" type="connected_vehicle" route="N_S" depart="253.0" departLane="random" departSpeed="13.89" />
    <vehicle id="246" type="connected_vehicle" route="W_E" depart="255.0" departLane="random" departSpeed="13.89" />
    <vehicle id="247" type="connected_vehicle" route="S_N" depart="256.0" departLane="random" departSpeed="13.89" />
    <vehicle id="248" type="connected_vehicle" route="S_N" depart="257.0" departLane="random" departSpeed="13.89" />
    <vehicle id="249" type="connected_vehicle" route="N_S" depart="259.0" departLane="random" departSpeed="13.89" />